# generated using pymatgen
data_Al5H27O19
_symmetry_space_group_name_H-M   'P 1'
_cell_length_a   50.00000000
_cell_length_b   50.00000000
_cell_length_c   50.00000000
_cell_angle_alpha   90.00000000
_cell_angle_beta   90.00000000
_cell_angle_gamma   90.00000000
_symmetry_Int_Tables_number   1
_chemical_formula_structural   Al5H27O19
_chemical_formula_sum   'Al10 H54 O38'
_cell_volume   125000.00000000
_cell_formula_units_Z   2
loop_
 _symmetry_equiv_pos_site_id
 _symmetry_equiv_pos_as_xyz
  1  'x, y, z'
loop_
 _atom_site_type_symbol
 _atom_site_label
 _atom_site_symmetry_multiplicity
 _atom_site_fract_x
 _atom_site_fract_y
 _atom_site_fract_z
 _atom_site_occupancy
  Al  Al1  1  0.397433  0.529423  0.502436  1
  O  O2  1  0.416975  0.555216  0.521047  1
  O  O3  1  0.427359  0.534947  0.480901  1
  Al  Al4  1  0.449211  0.556906  0.502001  1
  O  O5  1  0.376652  0.555203  0.480515  1
  O  O6  1  0.366287  0.533963  0.526665  1
  O  O7  1  0.437501  0.590594  0.484283  1
  O  O8  1  0.464557  0.582999  0.528789  1
  O  O9  1  0.382800  0.500621  0.483408  1
  O  O10  1  0.407771  0.499451  0.522173  1
  O  O11  1  0.479410  0.555949  0.480748  1
  O  O12  1  0.468884  0.531609  0.520517  1
  Al  Al13  1  0.398665  0.471140  0.499716  1
  Al  Al14  1  0.500265  0.529371  0.498953  1
  O  O15  1  0.365034  0.462587  0.518796  1
  O  O16  1  0.383201  0.445717  0.472206  1
  O  O17  1  0.520582  0.555897  0.517803  1
  O  O18  1  0.531614  0.532629  0.477665  1
  O  O19  1  0.429858  0.468813  0.479620  1
  O  O20  1  0.416565  0.443673  0.517648  1
  O  O21  1  0.487213  0.500001  0.478749  1
  O  O22  1  0.513589  0.499778  0.518976  1
  Al  Al23  1  0.448916  0.442915  0.498765  1
  Al  Al24  1  0.499893  0.470890  0.498890  1
  O  O25  1  0.531460  0.465626  0.478524  1
  O  O26  1  0.518671  0.443971  0.519555  1
  O  O27  1  0.480462  0.444365  0.479247  1
  O  O28  1  0.468124  0.467212  0.519671  1
  H  H29  1  0.430235  0.530747  0.462753  1
  H  H30  1  0.439466  0.484457  0.475088  1
  H  H31  1  0.487025  0.500759  0.459900  1
  H  H32  1  0.467870  0.466250  0.538520  1
  H  H33  1  0.416319  0.498403  0.538930  1
  H  H34  1  0.461285  0.514959  0.525186  1
  H  H35  1  0.409295  0.430243  0.528718  1
  H  H36  1  0.512626  0.500719  0.537804  1
  H  H37  1  0.414166  0.560469  0.538938  1
  H  H38  1  0.375339  0.501654  0.466121  1
  H  H39  1  0.487821  0.570578  0.472333  1
  H  H40  1  0.479533  0.444426  0.460379  1
  H  H41  1  0.364983  0.522918  0.542052  1
  H  H42  1  0.511717  0.570576  0.525659  1
  H  H43  1  0.358648  0.550845  0.530808  1
  H  H44  1  0.465644  0.577553  0.546939  1
  H  H45  1  0.364438  0.458295  0.537284  1
  H  H46  1  0.461234  0.601669  0.528168  1
  H  H47  1  0.519607  0.446036  0.538327  1
  H  H48  1  0.349454  0.472564  0.514473  1
  H  H49  1  0.384269  0.562125  0.464573  1
  H  H50  1  0.539206  0.516773  0.470845  1
  H  H51  1  0.357885  0.553807  0.477984  1
  H  H52  1  0.440509  0.594054  0.465869  1
  H  H53  1  0.385444  0.449650  0.453752  1
  H  H54  1  0.421488  0.599299  0.489596  1
  H  H55  1  0.366074  0.437877  0.474646  1
  H  H56  1  0.532557  0.465874  0.459694  1
  Al  Al57  1  0.550599  0.442403  0.500170  1
  O  O58  1  0.583989  0.443146  0.483407  1
  O  O59  1  0.568428  0.469026  0.519837  1
  H  H60  1  0.558237  0.484756  0.522551  1
  H  H61  1  0.589706  0.432156  0.469194  1
  Al  Al62  1  0.600831  0.470919  0.501587  1
  Al  Al63  1  0.551233  0.557206  0.497202  1
  O  O64  1  0.635485  0.461593  0.485059  1
  O  O65  1  0.616379  0.500378  0.518224  1
  O  O66  1  0.614178  0.446026  0.530735  1
  O  O67  1  0.593251  0.499152  0.478387  1
  H  H68  1  0.609368  0.449824  0.548713  1
  H  H69  1  0.632046  0.439605  0.530457  1
  H  H70  1  0.650727  0.472457  0.488236  1
  H  H71  1  0.637584  0.452764  0.468399  1
  Al  Al72  1  0.602745  0.529177  0.498478  1
  H  H73  1  0.623137  0.501389  0.535798  1
  H  H74  1  0.586283  0.498034  0.460917  1
  O  O75  1  0.584008  0.555115  0.479171  1
  O  O76  1  0.572103  0.534829  0.518817  1
  O  O77  1  0.634871  0.533686  0.475626  1
  O  O78  1  0.536947  0.583926  0.470624  1
  H  H79  1  0.568266  0.529991  0.536619  1
  H  H80  1  0.587489  0.560553  0.461454  1
  H  H81  1  0.540727  0.602499  0.471324  1
  H  H82  1  0.535411  0.578587  0.452480  1
  H  H83  1  0.642623  0.550537  0.471564  1
  H  H84  1  0.636908  0.522408  0.460494  1
  O  O85  1  0.562738  0.590568  0.515698  1
  H  H86  1  0.579087  0.599084  0.511152  1
  H  H87  1  0.559140  0.593708  0.534063  1
  O  O88  1  0.622645  0.554925  0.521383  1
  H  H89  1  0.641380  0.553816  0.524259  1
  H  H90  1  0.614593  0.561223  0.537373  1
  O  O91  1  0.435065  0.414707  0.474639  1
  H  H92  1  0.441622  0.396948  0.475839  1
  H  H93  1  0.416393  0.414233  0.471226  1
  O  O94  1  0.464716  0.412689  0.519234  1
  H  H95  1  0.457164  0.404596  0.534639  1
  H  H96  1  0.483523  0.414472  0.521804  1
  O  O97  1  0.537400  0.412728  0.477434  1
  H  H98  1  0.519105  0.413597  0.472347  1
  H  H99  1  0.541756  0.394721  0.481537  1
  O  O100  1  0.564319  0.413110  0.523091  1
  H  H101  1  0.554713  0.405517  0.537576  1
  H  H102  1  0.582884  0.412990  0.527109  1
