# generated using pymatgen
data_Al13(H3O2)24
_symmetry_space_group_name_H-M   'P 1'
_cell_length_a   50.00000000
_cell_length_b   50.00000000
_cell_length_c   50.00000000
_cell_angle_alpha   90.00000000
_cell_angle_beta   90.00000000
_cell_angle_gamma   90.00000000
_symmetry_Int_Tables_number   1
_chemical_formula_structural   Al13(H3O2)24
_chemical_formula_sum   'Al13 H72 O48'
_cell_volume   125000.00000000
_cell_formula_units_Z   1
loop_
 _symmetry_equiv_pos_site_id
 _symmetry_equiv_pos_as_xyz
  1  'x, y, z'
loop_
 _atom_site_type_symbol
 _atom_site_label
 _atom_site_symmetry_multiplicity
 _atom_site_fract_x
 _atom_site_fract_y
 _atom_site_fract_z
 _atom_site_occupancy
  Al  Al1  1  0.500013  0.500039  0.499469  1
  Al  Al2  1  0.554920  0.474512  0.498987  1
  Al  Al3  1  0.505355  0.439624  0.500200  1
  Al  Al4  1  0.450529  0.465407  0.499537  1
  Al  Al5  1  0.444993  0.525655  0.499776  1
  Al  Al6  1  0.494671  0.560379  0.500243  1
  Al  Al7  1  0.549598  0.534867  0.499080  1
  Al  Al8  1  0.560774  0.415744  0.533303  1
  Al  Al9  1  0.455521  0.404949  0.468294  1
  Al  Al10  1  0.395718  0.490647  0.531807  1
  Al  Al11  1  0.439978  0.585978  0.467891  1
  Al  Al12  1  0.544114  0.593992  0.533476  1
  Al  Al13  1  0.603872  0.508746  0.466092  1
  O  O14  1  0.486175  0.470131  0.480811  1
  O  O15  1  0.514183  0.529656  0.518438  1
  O  O16  1  0.532616  0.503188  0.480346  1
  O  O17  1  0.518900  0.473126  0.518318  1
  O  O18  1  0.467143  0.497009  0.518426  1
  O  O19  1  0.481191  0.527297  0.481030  1
  O  O20  1  0.536141  0.447993  0.481024  1
  O  O21  1  0.473029  0.442603  0.518432  1
  O  O22  1  0.436774  0.494743  0.480817  1
  O  O23  1  0.463394  0.551806  0.518793  1
  O  O24  1  0.526588  0.558281  0.481421  1
  O  O25  1  0.563463  0.505624  0.517494  1
  O  O26  1  0.569486  0.450430  0.523252  1
  O  O27  1  0.524896  0.417693  0.523508  1
  O  O28  1  0.490469  0.413633  0.477685  1
  O  O29  1  0.441423  0.438698  0.475194  1
  O  O30  1  0.420943  0.465124  0.522198  1
  O  O31  1  0.417045  0.520133  0.523702  1
  O  O32  1  0.431184  0.550655  0.475974  1
  O  O33  1  0.475804  0.583163  0.477537  1
  O  O34  1  0.509196  0.584006  0.525243  1
  O  O35  1  0.560008  0.562332  0.522317  1
  O  O36  1  0.578902  0.534585  0.475816  1
  O  O37  1  0.582266  0.479571  0.474294  1
  O  O38  1  0.552526  0.425309  0.570102  1
  O  O39  1  0.571641  0.399685  0.499930  1
  O  O40  1  0.597658  0.411568  0.545678  1
  O  O41  1  0.555581  0.379170  0.546259  1
  O  O42  1  0.462211  0.412763  0.430842  1
  O  O43  1  0.446064  0.390148  0.502603  1
  O  O44  1  0.466474  0.368667  0.458644  1
  O  O45  1  0.419945  0.393881  0.456436  1
  O  O46  1  0.406541  0.489488  0.569092  1
  O  O47  1  0.377666  0.489404  0.497747  1
  O  O48  1  0.370846  0.462349  0.542340  1
  O  O49  1  0.367939  0.515268  0.543684  1
  O  O50  1  0.447710  0.578367  0.430581  1
  O  O51  1  0.429507  0.600699  0.501927  1
  O  O52  1  0.403106  0.591330  0.456374  1
  O  O53  1  0.445512  0.623183  0.457094  1
  O  O54  1  0.542097  0.581014  0.570105  1
  O  O55  1  0.550413  0.612448  0.500169  1
  O  O56  1  0.529753  0.627375  0.547449  1
  O  O57  1  0.579133  0.607773  0.544385  1
  O  O58  1  0.592712  0.510259  0.428847  1
  O  O59  1  0.622525  0.508476  0.499905  1
  O  O60  1  0.629141  0.536567  0.455596  1
  O  O61  1  0.630981  0.483532  0.453631  1
  H  H62  1  0.486118  0.469681  0.461820  1
  H  H63  1  0.514517  0.529757  0.537422  1
  H  H64  1  0.532792  0.502955  0.461346  1
  H  H65  1  0.519239  0.473409  0.537300  1
  H  H66  1  0.466871  0.496964  0.537421  1
  H  H67  1  0.481243  0.527639  0.462045  1
  H  H68  1  0.540254  0.440803  0.464039  1
  H  H69  1  0.470296  0.437559  0.536456  1
  H  H70  1  0.432032  0.494563  0.462519  1
  H  H71  1  0.460238  0.555658  0.537026  1
  H  H72  1  0.528841  0.564554  0.463716  1
  H  H73  1  0.569324  0.506553  0.535444  1
  H  H74  1  0.582040  0.458758  0.534767  1
  H  H75  1  0.515138  0.402888  0.530277  1
  H  H76  1  0.502878  0.400849  0.471137  1
  H  H77  1  0.430459  0.444892  0.461014  1
  H  H78  1  0.415846  0.447673  0.527683  1
  H  H79  1  0.414870  0.534564  0.535816  1
  H  H80  1  0.418906  0.542974  0.463727  1
  H  H81  1  0.486022  0.598092  0.471741  1
  H  H82  1  0.497183  0.588460  0.539229  1
  H  H83  1  0.578013  0.561355  0.528209  1
  H  H84  1  0.583556  0.551653  0.468945  1
  H  H85  1  0.583117  0.465769  0.461320  1
  H  H86  1  0.535276  0.429643  0.576785  1
  H  H87  1  0.565566  0.429017  0.583430  1
  H  H88  1  0.589712  0.398385  0.494177  1
  H  H89  1  0.560830  0.388891  0.488647  1
  H  H90  1  0.603643  0.395651  0.554198  1
  H  H91  1  0.612878  0.421450  0.540014  1
  H  H92  1  0.559877  0.363199  0.536899  1
  H  H93  1  0.550549  0.374895  0.564084  1
  H  H94  1  0.449239  0.410987  0.417062  1
  H  H95  1  0.477975  0.420633  0.423753  1
  H  H96  1  0.457840  0.384377  0.516323  1
  H  H97  1  0.428331  0.384965  0.507065  1
  H  H98  1  0.465691  0.353414  0.469958  1
  H  H99  1  0.472756  0.363513  0.441466  1
  H  H100  1  0.403462  0.402499  0.460364  1
  H  H101  1  0.416338  0.376416  0.449825  1
  H  H102  1  0.421325  0.479670  0.575866  1
  H  H103  1  0.400241  0.501454  0.582448  1
  H  H104  1  0.365343  0.502488  0.491574  1
  H  H105  1  0.380961  0.476856  0.483894  1
  H  H106  1  0.357406  0.454925  0.531153  1
  H  H107  1  0.369696  0.454753  0.559719  1
  H  H108  1  0.351531  0.509141  0.551099  1
  H  H109  1  0.366007  0.533555  0.538898  1
  H  H110  1  0.464740  0.573673  0.423588  1
  H  H111  1  0.434454  0.575577  0.417246  1
  H  H112  1  0.411544  0.603328  0.507541  1
  H  H113  1  0.441271  0.605707  0.515945  1
  H  H114  1  0.397205  0.607649  0.448584  1
  H  H115  1  0.387888  0.581170  0.461522  1
  H  H116  1  0.442838  0.638288  0.468307  1
  H  H117  1  0.450711  0.628880  0.439729  1
  H  H118  1  0.534671  0.590640  0.584715  1
  H  H119  1  0.546940  0.563570  0.575830  1
  H  H120  1  0.542806  0.629277  0.495669  1
  H  H121  1  0.562526  0.607281  0.486488  1
  H  H122  1  0.540714  0.640760  0.555357  1
  H  H123  1  0.513019  0.635148  0.542860  1
  H  H124  1  0.586960  0.605620  0.561570  1
  H  H125  1  0.590369  0.618701  0.533642  1
  H  H126  1  0.577813  0.519964  0.422166  1
  H  H127  1  0.599176  0.498579  0.415312  1
  H  H128  1  0.635203  0.495122  0.504620  1
  H  H129  1  0.622197  0.521736  0.513466  1
  H  H130  1  0.642945  0.543568  0.466610  1
  H  H131  1  0.630256  0.544253  0.438251  1
  H  H132  1  0.647577  0.489077  0.446178  1
  H  H133  1  0.631977  0.465004  0.457730  1
