# generated using pymatgen
data_Al5(H11O8)2
_symmetry_space_group_name_H-M   'P 1'
_cell_length_a   50.00000000
_cell_length_b   50.00000000
_cell_length_c   50.00000000
_cell_angle_alpha   90.00000000
_cell_angle_beta   90.00000000
_cell_angle_gamma   90.00000000
_symmetry_Int_Tables_number   1
_chemical_formula_structural   Al5(H11O8)2
_chemical_formula_sum   'Al15 H66 O48'
_cell_volume   125000.00000000
_cell_formula_units_Z   3
loop_
 _symmetry_equiv_pos_site_id
 _symmetry_equiv_pos_as_xyz
  1  'x, y, z'
loop_
 _atom_site_type_symbol
 _atom_site_label
 _atom_site_symmetry_multiplicity
 _atom_site_fract_x
 _atom_site_fract_y
 _atom_site_fract_z
 _atom_site_occupancy
  Al  Al1  1  0.498089  0.499681  0.499746  1
  Al  Al2  1  0.462922  0.549153  0.497583  1
  Al  Al3  1  0.491812  0.602654  0.501702  1
  Al  Al4  1  0.552307  0.607630  0.502236  1
  Al  Al5  1  0.586701  0.557892  0.496971  1
  Al  Al6  1  0.561059  0.503802  0.500202  1
  Al  Al7  1  0.593283  0.453428  0.502725  1
  Al  Al8  1  0.565504  0.399802  0.498361  1
  Al  Al9  1  0.504776  0.396822  0.497684  1
  Al  Al10  1  0.469189  0.446123  0.502487  1
  Al  Al11  1  0.411860  0.444389  0.504276  1
  Al  Al12  1  0.379278  0.492576  0.499675  1
  Al  Al13  1  0.405783  0.544419  0.496179  1
  Al  Al14  1  0.525694  0.552741  0.500843  1
  Al  Al15  1  0.532011  0.450743  0.498968  1
  O  O16  1  0.498989  0.532840  0.519217  1
  O  O17  1  0.496661  0.568161  0.481510  1
  O  O18  1  0.524117  0.585216  0.520510  1
  O  O19  1  0.552960  0.571852  0.481319  1
  O  O20  1  0.556800  0.537561  0.518851  1
  O  O21  1  0.529206  0.519021  0.482041  1
  O  O22  1  0.530870  0.484695  0.517859  1
  O  O23  1  0.561099  0.469852  0.481334  1
  O  O24  1  0.561286  0.435283  0.518702  1
  O  O25  1  0.534830  0.418424  0.479389  1
  O  O26  1  0.505128  0.431683  0.518170  1
  O  O27  1  0.503277  0.467177  0.480301  1
  O  O28  1  0.477039  0.478117  0.519746  1
  O  O29  1  0.440876  0.456641  0.482657  1
  O  O30  1  0.403830  0.475767  0.522289  1
  O  O31  1  0.401763  0.512606  0.477595  1
  O  O32  1  0.436102  0.535424  0.517544  1
  O  O33  1  0.474593  0.518583  0.479834  1
  O  O34  1  0.468232  0.580106  0.517430  1
  O  O35  1  0.521142  0.618484  0.486246  1
  O  O36  1  0.580701  0.588779  0.515980  1
  O  O37  1  0.583402  0.525188  0.480586  1
  O  O38  1  0.585688  0.485217  0.519878  1
  O  O39  1  0.591082  0.422008  0.483951  1
  O  O40  1  0.535632  0.384710  0.513452  1
  O  O41  1  0.478378  0.416452  0.482215  1
  O  O42  1  0.442716  0.434207  0.524088  1
  O  O43  1  0.384532  0.458775  0.484069  1
  O  O44  1  0.380014  0.526604  0.515697  1
  O  O45  1  0.435108  0.558206  0.476184  1
  O  O46  1  0.466475  0.617688  0.477967  1
  O  O47  1  0.487873  0.630194  0.527927  1
  O  O48  1  0.551929  0.634108  0.529330  1
  O  O49  1  0.573645  0.627497  0.477873  1
  O  O50  1  0.609915  0.572820  0.470926  1
  O  O51  1  0.615084  0.546670  0.519269  1
  O  O52  1  0.619441  0.468480  0.479789  1
  O  O53  1  0.618739  0.442195  0.528159  1
  O  O54  1  0.588510  0.383627  0.523821  1
  O  O55  1  0.571062  0.373041  0.472301  1
  O  O56  1  0.503265  0.369610  0.471298  1
  O  O57  1  0.482045  0.378603  0.521969  1
  O  O58  1  0.412176  0.410597  0.483453  1
  O  O59  1  0.389281  0.422879  0.528596  1
  O  O60  1  0.349358  0.481338  0.522947  1
  O  O61  1  0.349326  0.500204  0.475013  1
  O  O62  1  0.380587  0.563965  0.472857  1
  O  O63  1  0.402487  0.577604  0.517918  1
  H  H64  1  0.497660  0.533504  0.538233  1
  H  H65  1  0.497075  0.568736  0.462442  1
  H  H66  1  0.524268  0.585083  0.539604  1
  H  H67  1  0.551375  0.572951  0.462325  1
  H  H68  1  0.558011  0.538267  0.537905  1
  H  H69  1  0.529398  0.519416  0.462944  1
  H  H70  1  0.530456  0.484187  0.536950  1
  H  H71  1  0.562143  0.469401  0.462267  1
  H  H72  1  0.560442  0.434515  0.537770  1
  H  H73  1  0.534981  0.418479  0.460305  1
  H  H74  1  0.505984  0.430939  0.537213  1
  H  H75  1  0.501805  0.466297  0.461306  1
  H  H76  1  0.468062  0.482487  0.535836  1
  H  H77  1  0.439731  0.459994  0.464115  1
  H  H78  1  0.409570  0.481658  0.539244  1
  H  H79  1  0.409344  0.507425  0.461151  1
  H  H80  1  0.435367  0.531343  0.535961  1
  H  H81  1  0.466626  0.513228  0.463508  1
  H  H82  1  0.456202  0.584459  0.531402  1
  H  H83  1  0.520551  0.630152  0.471309  1
  H  H84  1  0.591400  0.594756  0.530449  1
  H  H85  1  0.593480  0.519975  0.465386  1
  H  H86  1  0.594013  0.491293  0.535814  1
  H  H87  1  0.603522  0.416337  0.470799  1
  H  H88  1  0.536329  0.369902  0.525287  1
  H  H89  1  0.466403  0.410640  0.468730  1
  H  H90  1  0.443407  0.426529  0.541340  1
  H  H91  1  0.376895  0.452632  0.467955  1
  H  H92  1  0.371518  0.531627  0.531768  1
  H  H93  1  0.435095  0.563551  0.458061  1
  H  H94  1  0.469258  0.626122  0.461126  1
  H  H95  1  0.447815  0.617708  0.481865  1
  H  H96  1  0.483064  0.627590  0.546188  1
  H  H97  1  0.482900  0.647919  0.522931  1
  H  H98  1  0.537867  0.646822  0.531099  1
  H  H99  1  0.566860  0.640278  0.539449  1
  H  H100  1  0.569346  0.645305  0.472560  1
  H  H101  1  0.592619  0.625865  0.477404  1
  H  H102  1  0.627452  0.578890  0.475353  1
  H  H103  1  0.608772  0.571091  0.451973  1
  H  H104  1  0.620194  0.553869  0.536155  1
  H  H105  1  0.628805  0.534812  0.513399  1
  H  H106  1  0.633738  0.479356  0.486192  1
  H  H107  1  0.622785  0.464181  0.461523  1
  H  H108  1  0.634302  0.432208  0.523534  1
  H  H109  1  0.618239  0.444268  0.547082  1
  H  H110  1  0.605928  0.377091  0.519669  1
  H  H111  1  0.584784  0.379904  0.542128  1
  H  H112  1  0.569258  0.354411  0.475871  1
  H  H113  1  0.576147  0.375336  0.454095  1
  H  H114  1  0.497059  0.371360  0.453380  1
  H  H115  1  0.507324  0.351289  0.474602  1
  H  H116  1  0.464942  0.371917  0.516917  1
  H  H117  1  0.485125  0.374368  0.540273  1
  H  H118  1  0.407615  0.408911  0.465099  1
  H  H119  1  0.411514  0.393452  0.491586  1
  H  H120  1  0.372942  0.414913  0.523062  1
  H  H121  1  0.388812  0.425230  0.547433  1
  H  H122  1  0.333792  0.491716  0.526211  1
  H  H123  1  0.352326  0.470090  0.537927  1
  H  H124  1  0.333969  0.489208  0.473099  1
  H  H125  1  0.352446  0.509154  0.458583  1
  H  H126  1  0.362512  0.566430  0.478196  1
  H  H127  1  0.381104  0.563062  0.453890  1
  H  H128  1  0.396613  0.594030  0.510404  1
  H  H129  1  0.399148  0.577952  0.536606  1
