# generated using pymatgen
data_Al8H39O29
_symmetry_space_group_name_H-M   'P 1'
_cell_length_a   50.00000000
_cell_length_b   50.00000000
_cell_length_c   50.00000000
_cell_angle_alpha   90.00000000
_cell_angle_beta   90.00000000
_cell_angle_gamma   90.00000000
_symmetry_Int_Tables_number   1
_chemical_formula_structural   Al8H39O29
_chemical_formula_sum   'Al16 H78 O58'
_cell_volume   125000.00000000
_cell_formula_units_Z   2
loop_
 _symmetry_equiv_pos_site_id
 _symmetry_equiv_pos_as_xyz
  1  'x, y, z'
loop_
 _atom_site_type_symbol
 _atom_site_label
 _atom_site_symmetry_multiplicity
 _atom_site_fract_x
 _atom_site_fract_y
 _atom_site_fract_z
 _atom_site_occupancy
  Al  Al1  1  0.648278  0.500320  0.503547  1
  Al  Al2  1  0.529958  0.399653  0.499275  1
  Al  Al3  1  0.560441  0.449497  0.495757  1
  O  O4  1  0.557497  0.417014  0.518103  1
  O  O5  1  0.501565  0.415268  0.518537  1
  O  O6  1  0.588377  0.463808  0.517064  1
  O  O7  1  0.533556  0.466905  0.516182  1
  H  H8  1  0.553970  0.420371  0.536392  1
  H  H9  1  0.502511  0.434141  0.520508  1
  H  H10  1  0.586546  0.482439  0.519900  1
  H  H11  1  0.534521  0.467944  0.534991  1
  O  O12  1  0.537561  0.426914  0.475897  1
  H  H13  1  0.529811  0.430390  0.459093  1
  O  O14  1  0.554471  0.480232  0.475674  1
  H  H15  1  0.556040  0.481570  0.456956  1
  Al  Al16  1  0.618359  0.450630  0.499566  1
  O  O17  1  0.627534  0.480751  0.479672  1
  O  O18  1  0.591797  0.437390  0.477610  1
  H  H19  1  0.622669  0.484612  0.461901  1
  H  H20  1  0.592284  0.422178  0.466522  1
  O  O21  1  0.645228  0.467020  0.520214  1
  H  H22  1  0.648072  0.463313  0.538494  1
  Al  Al23  1  0.529344  0.499542  0.496981  1
  Al  Al24  1  0.472194  0.402134  0.500030  1
  O  O25  1  0.499891  0.384872  0.482235  1
  O  O26  1  0.646806  0.532607  0.485198  1
  O  O27  1  0.621685  0.518956  0.521772  1
  Al  Al28  1  0.559427  0.550256  0.498546  1
  O  O29  1  0.556338  0.518064  0.517953  1
  O  O30  1  0.501805  0.512744  0.519583  1
  O  O31  1  0.588843  0.565115  0.519222  1
  O  O32  1  0.533213  0.569428  0.519096  1
  H  H33  1  0.554346  0.518470  0.536716  1
  H  H34  1  0.503289  0.531077  0.523846  1
  H  H35  1  0.587894  0.566237  0.538040  1
  H  H36  1  0.533090  0.570660  0.537917  1
  O  O37  1  0.534422  0.531488  0.477849  1
  H  H38  1  0.531701  0.533267  0.459306  1
  O  O39  1  0.554141  0.582266  0.478514  1
  H  H40  1  0.557981  0.583472  0.460115  1
  Al  Al41  1  0.617603  0.550097  0.501188  1
  O  O42  1  0.590067  0.539679  0.478599  1
  H  H43  1  0.589490  0.522280  0.471302  1
  H  H44  1  0.653732  0.536941  0.468208  1
  H  H45  1  0.614405  0.515809  0.538861  1
  Al  Al46  1  0.527008  0.598846  0.497107  1
  Al  Al47  1  0.471388  0.501625  0.500325  1
  O  O48  1  0.498786  0.488668  0.477543  1
  O  O49  1  0.499942  0.615959  0.516110  1
  H  H50  1  0.500455  0.629090  0.529615  1
  Al  Al51  1  0.469264  0.601338  0.500123  1
  O  O52  1  0.496845  0.586012  0.479609  1
  H  H53  1  0.499900  0.371575  0.468879  1
  O  O54  1  0.466918  0.431706  0.478047  1
  O  O55  1  0.444483  0.418633  0.518740  1
  Al  Al56  1  0.382827  0.449213  0.497229  1
  O  O57  1  0.410804  0.461935  0.518345  1
  O  O58  1  0.354560  0.464248  0.516994  1
  H  H59  1  0.410491  0.480022  0.523804  1
  H  H60  1  0.350418  0.460525  0.535019  1
  O  O61  1  0.374728  0.479984  0.478134  1
  H  H62  1  0.380991  0.485417  0.461217  1
  Al  Al63  1  0.441013  0.451372  0.498168  1
  O  O64  1  0.444151  0.483534  0.479173  1
  O  O65  1  0.411905  0.436091  0.477974  1
  H  H66  1  0.445716  0.483488  0.460362  1
  H  H67  1  0.497314  0.470422  0.472928  1
  H  H68  1  0.411912  0.435065  0.459126  1
  H  H69  1  0.467266  0.430673  0.459212  1
  O  O70  1  0.466695  0.469012  0.519048  1
  H  H71  1  0.467498  0.468530  0.537868  1
  H  H72  1  0.445482  0.420621  0.537506  1
  Al  Al73  1  0.351630  0.498043  0.501409  1
  O  O74  1  0.466111  0.534605  0.481872  1
  O  O75  1  0.446410  0.519914  0.522584  1
  Al  Al76  1  0.381711  0.547754  0.503275  1
  O  O77  1  0.376548  0.515889  0.522426  1
  O  O78  1  0.408810  0.561806  0.523748  1
  H  H79  1  0.380723  0.513686  0.540679  1
  H  H80  1  0.408893  0.575163  0.537008  1
  O  O81  1  0.353724  0.531168  0.484398  1
  H  H82  1  0.349883  0.535228  0.466372  1
  Al  Al83  1  0.439536  0.551204  0.503640  1
  O  O84  1  0.440965  0.584141  0.482391  1
  O  O85  1  0.410909  0.536942  0.483089  1
  H  H86  1  0.442795  0.581655  0.463731  1
  H  H87  1  0.495567  0.567218  0.477249  1
  H  H88  1  0.413393  0.518603  0.479101  1
  H  H89  1  0.464353  0.533896  0.463097  1
  O  O90  1  0.462752  0.573571  0.523338  1
  H  H91  1  0.471417  0.569735  0.539608  1
  H  H92  1  0.445242  0.518298  0.541312  1
  O  O93  1  0.445253  0.624327  0.522035  1
  H  H94  1  0.443152  0.621638  0.540682  1
  H  H95  1  0.442984  0.642729  0.518059  1
  O  O96  1  0.467306  0.632773  0.475955  1
  H  H97  1  0.455977  0.633539  0.460759  1
  H  H98  1  0.483997  0.640820  0.471661  1
  O  O99  1  0.526700  0.629840  0.470092  1
  H  H100  1  0.539267  0.643808  0.472920  1
  H  H101  1  0.526853  0.625574  0.451586  1
  O  O102  1  0.555647  0.620259  0.514838  1
  H  H103  1  0.572227  0.610873  0.514601  1
  H  H104  1  0.554028  0.629295  0.531438  1
  O  O105  1  0.621967  0.581254  0.476916  1
  H  H106  1  0.637138  0.592613  0.477136  1
  H  H107  1  0.614833  0.580362  0.459379  1
  O  O108  1  0.643657  0.570623  0.523202  1
  H  H109  1  0.660278  0.562463  0.527395  1
  H  H110  1  0.638989  0.582818  0.536948  1
  O  O111  1  0.673770  0.514229  0.531684  1
  H  H112  1  0.669131  0.514263  0.550084  1
  H  H113  1  0.692542  0.511844  0.530212  1
  O  O114  1  0.682678  0.491202  0.485921  1
  H  H115  1  0.686376  0.495825  0.467892  1
  H  H116  1  0.691839  0.475064  0.489884  1
  O  O117  1  0.645450  0.427477  0.480960  1
  H  H118  1  0.662942  0.425204  0.487958  1
  H  H119  1  0.646704  0.427860  0.462027  1
  O  O120  1  0.615533  0.419421  0.524291  1
  H  H121  1  0.626142  0.403933  0.521604  1
  H  H122  1  0.597273  0.413876  0.525612  1
  O  O123  1  0.554820  0.376402  0.478557  1
  H  H124  1  0.557108  0.358117  0.483046  1
  H  H125  1  0.556986  0.378540  0.459836  1
  O  O126  1  0.530947  0.368643  0.523971  1
  H  H127  1  0.514069  0.360900  0.528100  1
  H  H128  1  0.541899  0.368209  0.539457  1
  O  O129  1  0.471338  0.370719  0.526675  1
  H  H130  1  0.460127  0.356101  0.521998  1
  H  H131  1  0.468421  0.374411  0.545078  1
  O  O132  1  0.444230  0.381285  0.480897  1
  H  H133  1  0.427926  0.390931  0.478977  1
  H  H134  1  0.447152  0.371311  0.465021  1
  O  O135  1  0.382924  0.415260  0.517701  1
  H  H136  1  0.400517  0.409518  0.522268  1
  H  H137  1  0.371328  0.411516  0.532241  1
  O  O138  1  0.357262  0.429052  0.473821  1
  H  H139  1  0.357205  0.410082  0.474181  1
  H  H140  1  0.353990  0.434803  0.456042  1
  O  O141  1  0.319278  0.487074  0.481475  1
  H  H142  1  0.314615  0.468663  0.481554  1
  H  H143  1  0.313587  0.494750  0.465077  1
  O  O144  1  0.323603  0.510126  0.527470  1
  H  H145  1  0.305400  0.505480  0.524800  1
  H  H146  1  0.326797  0.511958  0.546079  1
  O  O147  1  0.353483  0.567170  0.523861  1
  H  H148  1  0.355816  0.573855  0.541456  1
  H  H149  1  0.335722  0.560683  0.522104  1
  O  O150  1  0.380782  0.579864  0.479742  1
  H  H151  1  0.398223  0.587165  0.477133  1
  H  H152  1  0.368898  0.594014  0.484025  1
