# generated using pymatgen
data_AlH9O5
_symmetry_space_group_name_H-M   'P 1'
_cell_length_a   50.00000000
_cell_length_b   50.00000000
_cell_length_c   50.00000000
_cell_angle_alpha   90.00000000
_cell_angle_beta   90.00000000
_cell_angle_gamma   90.00000000
_symmetry_Int_Tables_number   1
_chemical_formula_structural   AlH9O5
_chemical_formula_sum   'Al2 H18 O10'
_cell_volume   125000.00000000
_cell_formula_units_Z   2
loop_
 _symmetry_equiv_pos_site_id
 _symmetry_equiv_pos_as_xyz
  1  'x, y, z'
loop_
 _atom_site_type_symbol
 _atom_site_label
 _atom_site_symmetry_multiplicity
 _atom_site_fract_x
 _atom_site_fract_y
 _atom_site_fract_z
 _atom_site_occupancy
  Al  Al1  1  0.471296  0.500001  0.499774  1
  Al  Al2  1  0.528704  0.500003  0.500226  1
  O  O3  1  0.500384  0.500002  0.476744  1
  H  H4  1  0.501332  0.500008  0.457873  1
  O  O5  1  0.499616  0.500000  0.523256  1
  H  H6  1  0.498668  0.499998  0.542127  1
  O  O7  1  0.557215  0.499993  0.474285  1
  H  H8  1  0.564380  0.515545  0.466053  1
  H  H9  1  0.564371  0.484434  0.466058  1
  O  O10  1  0.554942  0.499999  0.528111  1
  H  H11  1  0.551867  0.500013  0.546869  1
  H  H12  1  0.573675  0.499989  0.524783  1
  O  O13  1  0.445058  0.500002  0.471889  1
  H  H14  1  0.426325  0.500000  0.475218  1
  H  H15  1  0.448132  0.500000  0.453131  1
  O  O16  1  0.442785  0.499997  0.525715  1
  H  H17  1  0.435625  0.484440  0.533944  1
  H  H18  1  0.435623  0.515552  0.533945  1
  O  O19  1  0.532183  0.461330  0.498739  1
  H  H20  1  0.524238  0.450274  0.485494  1
  H  H21  1  0.541922  0.450614  0.511038  1
  O  O22  1  0.532190  0.538672  0.498735  1
  H  H23  1  0.524251  0.549728  0.485486  1
  H  H24  1  0.541943  0.549387  0.511025  1
  O  O25  1  0.467816  0.461329  0.501261  1
  H  H26  1  0.475755  0.450273  0.514509  1
  H  H27  1  0.458068  0.450614  0.488967  1
  O  O28  1  0.467811  0.538671  0.501265  1
  H  H29  1  0.475754  0.549727  0.514512  1
  H  H30  1  0.458066  0.549387  0.488970  1
