# generated using pymatgen
data_Al3(H12O7)2
_symmetry_space_group_name_H-M   'P 1'
_cell_length_a   50.00000000
_cell_length_b   50.00000000
_cell_length_c   50.00000000
_cell_angle_alpha   90.00000000
_cell_angle_beta   90.00000000
_cell_angle_gamma   90.00000000
_symmetry_Int_Tables_number   1
_chemical_formula_structural   Al3(H12O7)2
_chemical_formula_sum   'Al3 H24 O14'
_cell_volume   125000.00000000
_cell_formula_units_Z   1
loop_
 _symmetry_equiv_pos_site_id
 _symmetry_equiv_pos_as_xyz
  1  'x, y, z'
loop_
 _atom_site_type_symbol
 _atom_site_label
 _atom_site_symmetry_multiplicity
 _atom_site_fract_x
 _atom_site_fract_y
 _atom_site_fract_z
 _atom_site_occupancy
  Al  Al1  1  0.550503  0.491782  0.498914  1
  O  O2  1  0.531121  0.515976  0.479219  1
  O  O3  1  0.519201  0.493516  0.518523  1
  H  H4  1  0.536499  0.524598  0.463296  1
  H  H5  1  0.517772  0.491446  0.537260  1
  Al  Al6  1  0.499743  0.519653  0.499101  1
  Al  Al7  1  0.448837  0.492298  0.501129  1
  O  O8  1  0.468371  0.517934  0.519219  1
  O  O9  1  0.478026  0.496096  0.479515  1
  O  O10  1  0.420270  0.490488  0.526781  1
  O  O11  1  0.514935  0.547972  0.522713  1
  H  H12  1  0.481030  0.488585  0.462471  1
  H  H13  1  0.464562  0.527363  0.535118  1
  H  H14  1  0.514596  0.566236  0.517468  1
  H  H15  1  0.515118  0.547218  0.541695  1
  H  H16  1  0.419487  0.498692  0.543906  1
  H  H17  1  0.404963  0.479448  0.524408  1
  O  O18  1  0.488547  0.550888  0.478010  1
  H  H19  1  0.473558  0.561386  0.483153  1
  H  H20  1  0.490295  0.551913  0.459114  1
  O  O21  1  0.426634  0.517194  0.481211  1
  H  H22  1  0.412398  0.527191  0.488844  1
  H  H23  1  0.430796  0.524192  0.464052  1
  O  O24  1  0.430531  0.465128  0.480686  1
  H  H25  1  0.435655  0.446835  0.480821  1
  H  H26  1  0.418623  0.468451  0.466264  1
  O  O27  1  0.465532  0.461810  0.518835  1
  H  H28  1  0.459792  0.454322  0.535320  1
  H  H29  1  0.484345  0.459631  0.517105  1
  O  O30  1  0.539723  0.461835  0.476682  1
  H  H31  1  0.532252  0.463228  0.459288  1
  H  H32  1  0.540589  0.443566  0.481801  1
  O  O33  1  0.582550  0.491719  0.477458  1
  H  H34  1  0.595965  0.505125  0.478564  1
  H  H35  1  0.585681  0.480581  0.462395  1
  O  O36  1  0.569209  0.519628  0.518658  1
  H  H37  1  0.578681  0.516724  0.534871  1
  H  H38  1  0.563503  0.537730  0.517855  1
  O  O39  1  0.566938  0.466144  0.522387  1
  H  H40  1  0.584446  0.459128  0.519919  1
  H  H41  1  0.558604  0.457254  0.536975  1
