# generated using pymatgen
data_Al2(H5O3)3
_symmetry_space_group_name_H-M   'P 1'
_cell_length_a   50.00000000
_cell_length_b   50.00000000
_cell_length_c   50.00000000
_cell_angle_alpha   90.00000000
_cell_angle_beta   90.00000000
_cell_angle_gamma   90.00000000
_symmetry_Int_Tables_number   1
_chemical_formula_structural   Al2(H5O3)3
_chemical_formula_sum   'Al4 H30 O18'
_cell_volume   125000.00000000
_cell_formula_units_Z   2
loop_
 _symmetry_equiv_pos_site_id
 _symmetry_equiv_pos_as_xyz
  1  'x, y, z'
loop_
 _atom_site_type_symbol
 _atom_site_label
 _atom_site_symmetry_multiplicity
 _atom_site_fract_x
 _atom_site_fract_y
 _atom_site_fract_z
 _atom_site_occupancy
  Al  Al1  1  0.499227  0.510497  0.540524  1
  O  O2  1  0.501623  0.536052  0.513672  1
  H  H3  1  0.491973  0.551587  0.518736  1
  O  O4  1  0.472612  0.532116  0.559476  1
  H  H5  1  0.454105  0.531913  0.555260  1
  H  H6  1  0.476008  0.545125  0.572892  1
  O  O7  1  0.471134  0.491903  0.524680  1
  H  H8  1  0.463762  0.479590  0.537106  1
  O  O9  1  0.497902  0.487174  0.571966  1
  H  H10  1  0.507218  0.470668  0.573178  1
  H  H11  1  0.487176  0.489691  0.587435  1
  O  O12  1  0.525925  0.488713  0.526576  1
  H  H13  1  0.542373  0.492190  0.535394  1
  O  O14  1  0.525755  0.530994  0.560826  1
  H  H15  1  0.535009  0.545961  0.553680  1
  H  H16  1  0.531866  0.527456  0.578457  1
  Al  Al17  1  0.464388  0.480277  0.489974  1
  O  O18  1  0.474496  0.511826  0.473146  1
  H  H19  1  0.462834  0.516562  0.458969  1
  O  O20  1  0.452531  0.466891  0.454948  1
  H  H21  1  0.442709  0.450751  0.452836  1
  H  H22  1  0.462251  0.470153  0.438952  1
  Al  Al23  1  0.532565  0.474581  0.492800  1
  O  O24  1  0.529223  0.507338  0.475366  1
  H  H25  1  0.543047  0.510705  0.462842  1
  O  O26  1  0.571191  0.481872  0.497240  1
  H  H27  1  0.579802  0.498675  0.495178  1
  H  H28  1  0.583445  0.469458  0.504779  1
  Al  Al29  1  0.503860  0.534497  0.476608  1
  O  O30  1  0.479524  0.565613  0.474118  1
  H  H31  1  0.460636  0.565248  0.476073  1
  H  H32  1  0.485468  0.583662  0.474119  1
  O  O33  1  0.427267  0.492281  0.493935  1
  H  H34  1  0.422402  0.504437  0.507699  1
  H  H35  1  0.414521  0.493287  0.479882  1
  O  O36  1  0.506986  0.538208  0.437619  1
  H  H37  1  0.498006  0.551728  0.427718  1
  H  H38  1  0.510258  0.523412  0.426152  1
  O  O39  1  0.541724  0.440452  0.509596  1
  H  H40  1  0.536356  0.436603  0.527411  1
  H  H41  1  0.544530  0.424169  0.500224  1
  O  O42  1  0.497609  0.463763  0.486295  1
  H  H43  1  0.496766  0.446503  0.478521  1
  O  O44  1  0.543237  0.456485  0.459425  1
  H  H45  1  0.561371  0.453865  0.454349  1
  H  H46  1  0.532603  0.457052  0.443682  1
  O  O47  1  0.531451  0.562283  0.477768  1
  H  H48  1  0.541389  0.565445  0.493647  1
  H  H49  1  0.541460  0.568272  0.462773  1
  O  O50  1  0.449694  0.446343  0.503942  1
  H  H51  1  0.459617  0.431230  0.509769  1
  H  H52  1  0.431448  0.444081  0.508752  1
