# generated using pymatgen
data_Al2H13O8
_symmetry_space_group_name_H-M   'P 1'
_cell_length_a   50.00000000
_cell_length_b   50.00000000
_cell_length_c   50.00000000
_cell_angle_alpha   90.00000000
_cell_angle_beta   90.00000000
_cell_angle_gamma   90.00000000
_symmetry_Int_Tables_number   1
_chemical_formula_structural   Al2H13O8
_chemical_formula_sum   'Al4 H26 O16'
_cell_volume   125000.00000000
_cell_formula_units_Z   2
loop_
 _symmetry_equiv_pos_site_id
 _symmetry_equiv_pos_as_xyz
  1  'x, y, z'
loop_
 _atom_site_type_symbol
 _atom_site_label
 _atom_site_symmetry_multiplicity
 _atom_site_fract_x
 _atom_site_fract_y
 _atom_site_fract_z
 _atom_site_occupancy
  Al  Al1  1  0.499934  0.530809  0.499982  1
  Al  Al2  1  0.500066  0.469189  0.500026  1
  Al  Al3  1  0.551181  0.500146  0.502977  1
  Al  Al4  1  0.448821  0.499855  0.497015  1
  O  O5  1  0.517581  0.500249  0.481467  1
  O  O6  1  0.482414  0.499750  0.518535  1
  O  O7  1  0.531590  0.527650  0.518181  1
  O  O8  1  0.531667  0.472624  0.518265  1
  O  O9  1  0.468413  0.472345  0.481821  1
  O  O10  1  0.468338  0.527375  0.481733  1
  O  O11  1  0.578924  0.498920  0.529042  1
  O  O12  1  0.421084  0.501075  0.470943  1
  H  H13  1  0.517484  0.500140  0.462417  1
  H  H14  1  0.482502  0.499858  0.537585  1
  H  H15  1  0.537572  0.538001  0.532854  1
  H  H16  1  0.537553  0.461094  0.532070  1
  H  H17  1  0.462432  0.461993  0.467149  1
  H  H18  1  0.462464  0.538905  0.467922  1
  H  H19  1  0.576665  0.495121  0.547548  1
  H  H20  1  0.596273  0.506246  0.526299  1
  H  H21  1  0.423343  0.504892  0.452440  1
  H  H22  1  0.403738  0.493740  0.473679  1
  O  O23  1  0.487203  0.441897  0.523821  1
  H  H24  1  0.481089  0.424978  0.517594  1
  H  H25  1  0.489421  0.441071  0.542691  1
  O  O26  1  0.513379  0.442679  0.475909  1
  H  H27  1  0.526694  0.429946  0.480661  1
  H  H28  1  0.509067  0.440535  0.457509  1
  O  O29  1  0.512789  0.558119  0.476201  1
  H  H30  1  0.510617  0.558938  0.457326  1
  H  H31  1  0.518911  0.575032  0.482437  1
  O  O32  1  0.486618  0.557310  0.524107  1
  H  H33  1  0.490934  0.559450  0.542507  1
  H  H34  1  0.473311  0.570052  0.519357  1
  O  O35  1  0.429625  0.473775  0.517656  1
  H  H36  1  0.415062  0.477317  0.529357  1
  H  H37  1  0.430964  0.455041  0.514783  1
  O  O38  1  0.429327  0.524605  0.519546  1
  H  H39  1  0.420346  0.539733  0.512294  1
  H  H40  1  0.429791  0.526270  0.538487  1
  O  O41  1  0.570668  0.475398  0.480439  1
  H  H42  1  0.570191  0.473731  0.461498  1
  H  H43  1  0.579661  0.460274  0.487685  1
  O  O44  1  0.570369  0.526229  0.482334  1
  H  H45  1  0.569045  0.544962  0.485223  1
  H  H46  1  0.584922  0.522686  0.470621  1
