# generated using pymatgen
data_Al13(H6O5)8
_symmetry_space_group_name_H-M   'P 1'
_cell_length_a   50.00000000
_cell_length_b   50.00000000
_cell_length_c   50.00000000
_cell_angle_alpha   90.00000000
_cell_angle_beta   90.00000000
_cell_angle_gamma   90.00000000
_symmetry_Int_Tables_number   1
_chemical_formula_structural   Al13(H6O5)8
_chemical_formula_sum   'Al13 H48 O40'
_cell_volume   125000.00000000
_cell_formula_units_Z   1
loop_
 _symmetry_equiv_pos_site_id
 _symmetry_equiv_pos_as_xyz
  1  'x, y, z'
loop_
 _atom_site_type_symbol
 _atom_site_label
 _atom_site_symmetry_multiplicity
 _atom_site_fract_x
 _atom_site_fract_y
 _atom_site_fract_z
 _atom_site_occupancy
  Al  Al1  1  0.498757  0.499956  0.499894  1
  Al  Al2  1  0.549638  0.533749  0.475280  1
  Al  Al3  1  0.547470  0.476244  0.462448  1
  Al  Al4  1  0.437273  0.474351  0.489448  1
  Al  Al5  1  0.482595  0.453831  0.458619  1
  Al  Al6  1  0.477842  0.441155  0.515587  1
  Al  Al7  1  0.439291  0.531351  0.501747  1
  Al  Al8  1  0.486325  0.560623  0.481750  1
  Al  Al9  1  0.481528  0.547991  0.538741  1
  Al  Al10  1  0.500675  0.485651  0.563331  1
  Al  Al11  1  0.543709  0.518922  0.544077  1
  Al  Al12  1  0.541856  0.461452  0.531404  1
  O  O13  1  0.522712  0.505242  0.473859  1
  O  O14  1  0.477571  0.472550  0.492415  1
  O  O15  1  0.479656  0.529469  0.504313  1
  O  O16  1  0.518138  0.492655  0.528999  1
  O  O17  1  0.559577  0.529567  0.511485  1
  O  O18  1  0.557450  0.464749  0.497067  1
  O  O19  1  0.540026  0.538330  0.439038  1
  O  O20  1  0.519758  0.451466  0.461284  1
  O  O21  1  0.485618  0.486301  0.439163  1
  O  O22  1  0.571994  0.504731  0.466455  1
  O  O23  1  0.488129  0.540974  0.449292  1
  O  O24  1  0.523732  0.559119  0.484477  1
  O  O25  1  0.440445  0.445136  0.512083  1
  O  O26  1  0.445202  0.456763  0.457316  1
  O  O27  1  0.435892  0.507633  0.473179  1
  O  O28  1  0.433835  0.498267  0.518017  1
  O  O29  1  0.480756  0.423693  0.482182  1
  O  O30  1  0.476607  0.461413  0.547488  1
  O  O31  1  0.515186  0.439158  0.518149  1
  O  O32  1  0.448798  0.559667  0.479693  1
  O  O33  1  0.444114  0.548570  0.534607  1
  O  O34  1  0.486101  0.577889  0.515441  1
  O  O35  1  0.518748  0.546730  0.541763  1
  O  O36  1  0.527633  0.508798  0.576580  1
  O  O37  1  0.526414  0.458145  0.565693  1
  O  O38  1  0.565456  0.488195  0.543572  1
  O  O39  1  0.577644  0.561032  0.471250  1
  O  O40  1  0.574115  0.452117  0.446601  1
  O  O41  1  0.398707  0.467468  0.484665  1
  O  O42  1  0.483421  0.431184  0.426540  1
  O  O43  1  0.472973  0.407771  0.535849  1
  O  O44  1  0.401388  0.542403  0.500905  1
  O  O45  1  0.487007  0.595101  0.462555  1
  O  O46  1  0.478563  0.571743  0.570131  1
  O  O47  1  0.484908  0.477958  0.598347  1
  O  O48  1  0.570699  0.540162  0.563185  1
  O  O49  1  0.566226  0.431754  0.539217  1
  O  O50  1  0.478545  0.516022  0.558849  1
  O  O51  1  0.537538  0.487829  0.428060  1
  Al  Al52  1  0.511468  0.513542  0.437447  1
  O  O53  1  0.501960  0.520675  0.400104  1
  H  H54  1  0.571330  0.445073  0.429193  1
  H  H55  1  0.583648  0.439389  0.456959  1
  H  H56  1  0.492450  0.611628  0.470129  1
  H  H57  1  0.489096  0.595983  0.443712  1
  H  H58  1  0.587000  0.506772  0.455168  1
  H  H59  1  0.551454  0.495342  0.417681  1
  H  H60  1  0.471382  0.541784  0.440541  1
  H  H61  1  0.584746  0.566175  0.454421  1
  H  H62  1  0.589746  0.565996  0.484996  1
  H  H63  1  0.469887  0.430358  0.413270  1
  H  H64  1  0.500289  0.428154  0.418364  1
  H  H65  1  0.388640  0.478735  0.473162  1
  H  H66  1  0.387496  0.461881  0.498928  1
  H  H67  1  0.391614  0.540598  0.484724  1
  H  H68  1  0.389549  0.539239  0.515404  1
  H  H69  1  0.465473  0.569422  0.583677  1
  H  H70  1  0.494299  0.578777  0.578092  1
  H  H71  1  0.483212  0.459871  0.603893  1
  H  H72  1  0.487277  0.488844  0.613722  1
  H  H73  1  0.474929  0.390129  0.529156  1
  H  H74  1  0.476223  0.407735  0.554552  1
  H  H75  1  0.433659  0.443085  0.451277  1
  H  H76  1  0.438295  0.575176  0.477358  1
  H  H77  1  0.434003  0.563966  0.538819  1
  H  H78  1  0.460688  0.514137  0.564779  1
  H  H79  1  0.521547  0.523335  0.587020  1
  H  H80  1  0.571991  0.541173  0.582081  1
  H  H81  1  0.580334  0.554516  0.555375  1
  H  H82  1  0.537948  0.460749  0.580453  1
  H  H83  1  0.578723  0.424528  0.526909  1
  H  H84  1  0.564332  0.420087  0.554062  1
  H  H85  1  0.470075  0.408979  0.477093  1
  H  H86  1  0.429296  0.429911  0.511434  1
  H  H87  1  0.578741  0.485163  0.556643  1
  H  H88  1  0.574607  0.472275  0.500002  1
  H  H89  1  0.506509  0.508184  0.386534  1
  H  H90  1  0.501215  0.538027  0.392436  1
  H  H91  1  0.535717  0.556078  0.434172  1
  H  H92  1  0.576512  0.521024  0.511315  1
  H  H93  1  0.531016  0.575639  0.490130  1
  H  H94  1  0.525844  0.562261  0.533645  1
  H  H95  1  0.523777  0.435967  0.471355  1
  H  H96  1  0.521209  0.421427  0.515412  1
  H  H97  1  0.458523  0.463473  0.552628  1
  H  H98  1  0.424303  0.495129  0.533960  1
  H  H99  1  0.437876  0.511058  0.454806  1
  H  H100  1  0.472234  0.487330  0.425829  1
  H  H101  1  0.475792  0.593366  0.518751  1
