# generated using pymatgen
data_Al13(H11O8)6
_symmetry_space_group_name_H-M   'P 1'
_cell_length_a   50.00000000
_cell_length_b   50.00000000
_cell_length_c   50.00000000
_cell_angle_alpha   90.00000000
_cell_angle_beta   90.00000000
_cell_angle_gamma   90.00000000
_symmetry_Int_Tables_number   1
_chemical_formula_structural   Al13(H11O8)6
_chemical_formula_sum   'Al13 H66 O48'
_cell_volume   125000.00000000
_cell_formula_units_Z   1
loop_
 _symmetry_equiv_pos_site_id
 _symmetry_equiv_pos_as_xyz
  1  'x, y, z'
loop_
 _atom_site_type_symbol
 _atom_site_label
 _atom_site_symmetry_multiplicity
 _atom_site_fract_x
 _atom_site_fract_y
 _atom_site_fract_z
 _atom_site_occupancy
  Al  Al1  1  0.560603  0.399462  0.501577  1
  O  O2  1  0.531433  0.386266  0.520857  1
  O  O3  1  0.531420  0.408103  0.480150  1
  Al  Al4  1  0.502226  0.400783  0.502319  1
  O  O5  1  0.566217  0.366513  0.480173  1
  O  O6  1  0.586169  0.381042  0.525815  1
  O  O7  1  0.495134  0.365040  0.485917  1
  O  O8  1  0.476583  0.386397  0.530223  1
  O  O9  1  0.587167  0.417514  0.482639  1
  O  O10  1  0.565261  0.430986  0.520920  1
  O  O11  1  0.475873  0.415857  0.481386  1
  O  O12  1  0.498442  0.432974  0.520149  1
  Al  Al13  1  0.588144  0.451081  0.499051  1
  Al  Al14  1  0.471276  0.449762  0.499102  1
  O  O15  1  0.620447  0.439933  0.519699  1
  O  O16  1  0.615101  0.464215  0.472998  1
  O  O17  1  0.441453  0.436177  0.519259  1
  O  O18  1  0.441292  0.461389  0.478505  1
  O  O19  1  0.563573  0.469240  0.478004  1
  O  O20  1  0.587026  0.483068  0.518160  1
  O  O21  1  0.496034  0.468577  0.477908  1
  O  O22  1  0.474005  0.482309  0.518272  1
  Al  Al23  1  0.558499  0.501421  0.497432  1
  Al  Al24  1  0.499789  0.501210  0.497143  1
  O  O25  1  0.584280  0.521047  0.477354  1
  O  O26  1  0.563106  0.533087  0.517590  1
  O  O27  1  0.473827  0.519976  0.476401  1
  O  O28  1  0.495440  0.533414  0.516885  1
  O  O29  1  0.529327  0.512840  0.476877  1
  O  O30  1  0.529592  0.488685  0.518209  1
  H  H31  1  0.530616  0.414720  0.462532  1
  H  H32  1  0.547570  0.460916  0.472402  1
  H  H33  1  0.495639  0.467574  0.459087  1
  H  H34  1  0.529488  0.491141  0.536915  1
  H  H35  1  0.558948  0.435069  0.538188  1
  H  H36  1  0.513437  0.444174  0.522960  1
  H  H37  1  0.585196  0.482424  0.536969  1
  H  H38  1  0.475231  0.481415  0.537080  1
  H  H39  1  0.531799  0.381251  0.539031  1
  H  H40  1  0.593230  0.413626  0.465212  1
  H  H41  1  0.460952  0.406975  0.474038  1
  H  H42  1  0.529678  0.514159  0.458093  1
  H  H43  1  0.561754  0.534285  0.536351  1
  H  H44  1  0.594107  0.391021  0.539872  1
  H  H45  1  0.442681  0.419008  0.526960  1
  H  H46  1  0.584276  0.363022  0.531473  1
  H  H47  1  0.478976  0.391861  0.548242  1
  H  H48  1  0.630754  0.451835  0.530277  1
  H  H49  1  0.470651  0.368374  0.530044  1
  H  H50  1  0.493822  0.533414  0.535681  1
  H  H51  1  0.631140  0.425036  0.514834  1
  H  H52  1  0.556306  0.364226  0.464156  1
  H  H53  1  0.587023  0.519441  0.458790  1
  H  H54  1  0.442214  0.479315  0.472642  1
  H  H55  1  0.583270  0.358488  0.477896  1
  H  H56  1  0.490725  0.363104  0.467560  1
  H  H57  1  0.609633  0.469659  0.455697  1
  H  H58  1  0.505837  0.350256  0.491139  1
  H  H59  1  0.633746  0.460906  0.473144  1
  H  H60  1  0.473026  0.519846  0.457568  1
  Al  Al61  1  0.468535  0.551141  0.496949  1
  O  O62  1  0.436944  0.563159  0.478942  1
  O  O63  1  0.472094  0.582929  0.518288  1
  O  O64  1  0.440299  0.535858  0.517800  1
  O  O65  1  0.492396  0.572843  0.476421  1
  H  H66  1  0.442780  0.517346  0.520838  1
  H  H67  1  0.436454  0.578337  0.467814  1
  H  H68  1  0.504593  0.565118  0.464338  1
  H  H69  1  0.456211  0.591437  0.523881  1
  Al  Al70  1  0.499521  0.600162  0.500383  1
  O  O71  1  0.529466  0.617059  0.485009  1
  O  O72  1  0.528300  0.584414  0.518841  1
  O  O73  1  0.496893  0.630514  0.526077  1
  O  O74  1  0.475076  0.623406  0.478866  1
  H  H75  1  0.489096  0.627646  0.543138  1
  H  H76  1  0.512614  0.640945  0.528337  1
  H  H77  1  0.472344  0.641698  0.483067  1
  H  H78  1  0.473892  0.621050  0.460085  1
  H  H79  1  0.527533  0.565542  0.520649  1
  H  H80  1  0.529266  0.630313  0.471610  1
  Al  Al81  1  0.557674  0.600568  0.502781  1
  Al  Al82  1  0.588225  0.551769  0.497282  1
  O  O83  1  0.566271  0.574598  0.477652  1
  O  O84  1  0.586531  0.582531  0.518693  1
  O  O85  1  0.583526  0.627219  0.488764  1
  O  O86  1  0.556091  0.626683  0.533677  1
  O  O87  1  0.618618  0.565296  0.475559  1
  O  O88  1  0.617867  0.534016  0.516919  1
  H  H89  1  0.581250  0.636858  0.472586  1
  H  H90  1  0.601954  0.623127  0.490837  1
  H  H91  1  0.615508  0.573898  0.458953  1
  H  H92  1  0.635104  0.555955  0.474879  1
  H  H93  1  0.591797  0.583961  0.536743  1
  H  H94  1  0.556548  0.569909  0.462231  1
  H  H95  1  0.553009  0.619826  0.551117  1
  H  H96  1  0.568694  0.640838  0.534828  1
  H  H97  1  0.614332  0.515322  0.518848  1
  H  H98  1  0.626165  0.540533  0.532676  1
  Al  Al99  1  0.410522  0.547985  0.499561  1
  Al  Al100  1  0.413251  0.448826  0.499153  1
  O  O101  1  0.382935  0.571087  0.482161  1
  O  O102  1  0.383354  0.530148  0.518210  1
  O  O103  1  0.410161  0.578105  0.526606  1
  O  O104  1  0.402941  0.518218  0.478181  1
  H  H105  1  0.413146  0.574021  0.544894  1
  H  H106  1  0.397591  0.592271  0.525465  1
  H  H107  1  0.364714  0.568956  0.487040  1
  H  H108  1  0.383738  0.576129  0.463887  1
  Al  Al109  1  0.380908  0.497583  0.499989  1
  H  H110  1  0.378681  0.532744  0.536292  1
  H  H111  1  0.409530  0.514941  0.460844  1
  O  O112  1  0.384267  0.465075  0.481788  1
  O  O113  1  0.405464  0.478559  0.520429  1
  O  O114  1  0.349840  0.508099  0.477492  1
  O  O115  1  0.412884  0.417854  0.473240  1
  H  H116  1  0.412870  0.482360  0.537330  1
  H  H117  1  0.378517  0.461831  0.464125  1
  H  H118  1  0.401120  0.403081  0.475031  1
  H  H119  1  0.415656  0.421367  0.454798  1
  H  H120  1  0.334824  0.496880  0.474458  1
  H  H121  1  0.353233  0.517928  0.461620  1
  O  O122  1  0.388350  0.424609  0.518924  1
  H  H123  1  0.369827  0.424662  0.514781  1
  H  H124  1  0.390363  0.421365  0.537516  1
  O  O125  1  0.351672  0.485590  0.524167  1
  H  H126  1  0.336333  0.496183  0.527766  1
  H  H127  1  0.356200  0.476142  0.539987  1
