# generated using pymatgen
data_Al4H30O19
_symmetry_space_group_name_H-M   'P 1'
_cell_length_a   50.00000000
_cell_length_b   50.00000000
_cell_length_c   50.00000000
_cell_angle_alpha   90.00000000
_cell_angle_beta   90.00000000
_cell_angle_gamma   90.00000000
_symmetry_Int_Tables_number   1
_chemical_formula_structural   Al4H30O19
_chemical_formula_sum   'Al4 H30 O19'
_cell_volume   125000.00000000
_cell_formula_units_Z   1
loop_
 _symmetry_equiv_pos_site_id
 _symmetry_equiv_pos_as_xyz
  1  'x, y, z'
loop_
 _atom_site_type_symbol
 _atom_site_label
 _atom_site_symmetry_multiplicity
 _atom_site_fract_x
 _atom_site_fract_y
 _atom_site_fract_z
 _atom_site_occupancy
  O  O1  1  0.499764  0.499859  0.500021  1
  Al  Al2  1  0.467418  0.482420  0.504739  1
  O  O3  1  0.483411  0.485850  0.539799  1
  H  H4  1  0.475479  0.482309  0.556526  1
  O  O5  1  0.430841  0.491357  0.524857  1
  H  H6  1  0.428690  0.509152  0.530991  1
  H  H7  1  0.425273  0.479578  0.538611  1
  O  O8  1  0.459319  0.516798  0.488989  1
  H  H9  1  0.442795  0.522790  0.482180  1
  O  O10  1  0.436844  0.467828  0.478758  1
  H  H11  1  0.441047  0.467307  0.460293  1
  H  H12  1  0.419450  0.475089  0.480719  1
  O  O13  1  0.488696  0.460248  0.481234  1
  H  H14  1  0.485084  0.442653  0.475507  1
  O  O15  1  0.455204  0.445369  0.522056  1
  H  H16  1  0.468291  0.436195  0.532223  1
  H  H17  1  0.446615  0.432853  0.510717  1
  Al  Al18  1  0.493918  0.533097  0.484429  1
  O  O19  1  0.511053  0.539721  0.518200  1
  H  H20  1  0.515830  0.556310  0.525765  1
  O  O21  1  0.518468  0.566815  0.473532  1
  H  H22  1  0.518229  0.571769  0.455243  1
  H  H23  1  0.536539  0.566304  0.479201  1
  Al  Al24  1  0.521835  0.479669  0.477964  1
  O  O25  1  0.540490  0.483749  0.511374  1
  H  H26  1  0.557506  0.477125  0.516051  1
  O  O27  1  0.540171  0.440983  0.480757  1
  H  H28  1  0.539708  0.432150  0.497507  1
  H  H29  1  0.536037  0.428348  0.467261  1
  Al  Al30  1  0.516379  0.504556  0.532943  1
  O  O31  1  0.507057  0.526084  0.568815  1
  H  H32  1  0.492619  0.538337  0.568263  1
  H  H33  1  0.505808  0.516141  0.584897  1
  O  O34  1  0.470617  0.567758  0.493855  1
  H  H35  1  0.457770  0.565676  0.507620  1
  H  H36  1  0.479920  0.583997  0.496817  1
  O  O37  1  0.554034  0.520767  0.546374  1
  H  H38  1  0.553042  0.535267  0.558534  1
  H  H39  1  0.566452  0.525365  0.532826  1
  O  O40  1  0.519080  0.463320  0.438597  1
  H  H41  1  0.501865  0.463422  0.430691  1
  H  H42  1  0.531550  0.469544  0.425762  1
  O  O43  1  0.516943  0.513579  0.460489  1
  H  H44  1  0.524176  0.519341  0.444064  1
  O  O45  1  0.561035  0.484581  0.460617  1
  H  H46  1  0.573867  0.471370  0.465083  1
  H  H47  1  0.569117  0.501565  0.462914  1
  O  O48  1  0.529126  0.479037  0.564760  1
  H  H49  1  0.522662  0.461241  0.564346  1
  H  H50  1  0.547698  0.478529  0.568448  1
  O  O51  1  0.478328  0.546534  0.446852  1
  H  H52  1  0.475547  0.533635  0.433259  1
  H  H53  1  0.463327  0.558106  0.447227  1
