# generated using pymatgen
data_Al13(H15O13)3
_symmetry_space_group_name_H-M   'P 1'
_cell_length_a   50.00000000
_cell_length_b   50.00000000
_cell_length_c   50.00000000
_cell_angle_alpha   90.00000000
_cell_angle_beta   90.00000000
_cell_angle_gamma   90.00000000
_symmetry_Int_Tables_number   1
_chemical_formula_structural   Al13(H15O13)3
_chemical_formula_sum   'Al26 H90 O78'
_cell_volume   125000.00000000
_cell_formula_units_Z   2
loop_
 _symmetry_equiv_pos_site_id
 _symmetry_equiv_pos_as_xyz
  1  'x, y, z'
loop_
 _atom_site_type_symbol
 _atom_site_label
 _atom_site_symmetry_multiplicity
 _atom_site_fract_x
 _atom_site_fract_y
 _atom_site_fract_z
 _atom_site_occupancy
  Al  Al1  1  0.536036  0.478501  0.529642  1
  Al  Al2  1  0.657640  0.492520  0.491649  1
  Al  Al3  1  0.586052  0.459517  0.554988  1
  Al  Al4  1  0.568838  0.514457  0.563068  1
  Al  Al5  1  0.594642  0.558212  0.534791  1
  Al  Al6  1  0.552476  0.462578  0.464957  1
  Al  Al7  1  0.533275  0.517046  0.472085  1
  Al  Al8  1  0.620885  0.457887  0.462676  1
  Al  Al9  1  0.630679  0.448235  0.519387  1
  Al  Al10  1  0.587170  0.560263  0.476875  1
  Al  Al11  1  0.639725  0.547398  0.499134  1
  Al  Al12  1  0.578018  0.505374  0.437093  1
  Al  Al13  1  0.591500  0.500197  0.501908  1
  O  O14  1  0.601683  0.534813  0.503181  1
  O  O15  1  0.575075  0.490049  0.532253  1
  O  O16  1  0.619993  0.478886  0.495760  1
  O  O17  1  0.568475  0.497145  0.474022  1
  Al  Al18  1  0.463982  0.521532  0.470356  1
  Al  Al19  1  0.342329  0.507384  0.508351  1
  Al  Al20  1  0.413932  0.540541  0.445056  1
  Al  Al21  1  0.431171  0.485609  0.436926  1
  Al  Al22  1  0.405429  0.441798  0.465175  1
  Al  Al23  1  0.447517  0.537424  0.535012  1
  Al  Al24  1  0.466725  0.482978  0.527918  1
  Al  Al25  1  0.379088  0.542090  0.537348  1
  Al  Al26  1  0.369292  0.551714  0.480679  1
  Al  Al27  1  0.412862  0.439755  0.523102  1
  Al  Al28  1  0.360325  0.452537  0.500808  1
  Al  Al29  1  0.421970  0.494658  0.562923  1
  Al  Al30  1  0.408508  0.499804  0.498088  1
  O  O31  1  0.398344  0.465179  0.496784  1
  O  O32  1  0.424931  0.509986  0.467757  1
  O  O33  1  0.379975  0.521053  0.504253  1
  O  O34  1  0.431528  0.502855  0.525975  1
  O  O35  1  0.409722  0.568929  0.417472  1
  H  H36  1  0.419564  0.585134  0.417067  1
  H  H37  1  0.393470  0.571394  0.408008  1
  O  O38  1  0.352166  0.582951  0.463355  1
  H  H39  1  0.346095  0.582395  0.445394  1
  H  H40  1  0.353910  0.601033  0.468799  1
  O  O41  1  0.336377  0.534870  0.484232  1
  H  H42  1  0.319829  0.543774  0.482482  1
  O  O43  1  0.303212  0.502671  0.512968  1
  H  H44  1  0.294992  0.499990  0.529857  1
  H  H45  1  0.293061  0.493528  0.499793  1
  O  O46  1  0.326413  0.432046  0.503362  1
  H  H47  1  0.312713  0.434913  0.490535  1
  H  H48  1  0.318251  0.427842  0.519975  1
  O  O49  1  0.376490  0.429554  0.525208  1
  H  H50  1  0.371891  0.411279  0.526446  1
  O  O51  1  0.422296  0.408657  0.546059  1
  H  H52  1  0.420001  0.410095  0.564848  1
  H  H53  1  0.437493  0.397802  0.542722  1
  O  O54  1  0.590237  0.431161  0.582615  1
  H  H55  1  0.606465  0.428706  0.592123  1
  H  H56  1  0.580386  0.414962  0.583034  1
  O  O57  1  0.549914  0.450595  0.552069  1
  H  H58  1  0.540184  0.445355  0.567386  1
  O  O59  1  0.647774  0.417043  0.536794  1
  H  H60  1  0.646054  0.398945  0.531395  1
  H  H61  1  0.653820  0.417648  0.554762  1
  O  O62  1  0.663606  0.465067  0.515795  1
  H  H63  1  0.680127  0.456098  0.517478  1
  O  O64  1  0.696779  0.497147  0.487000  1
  H  H65  1  0.706929  0.506261  0.500198  1
  H  H66  1  0.704907  0.500027  0.470098  1
  O  O67  1  0.673651  0.567854  0.496550  1
  H  H68  1  0.681857  0.571822  0.479901  1
  H  H69  1  0.687325  0.564994  0.509407  1
  O  O70  1  0.623568  0.570377  0.474730  1
  H  H71  1  0.628227  0.588633  0.473437  1
  O  O72  1  0.577745  0.591396  0.453959  1
  H  H73  1  0.562623  0.602328  0.457383  1
  H  H74  1  0.579916  0.589930  0.435159  1
  O  O75  1  0.450062  0.549472  0.447978  1
  H  H76  1  0.459772  0.554740  0.432658  1
  O  O77  1  0.499734  0.533358  0.467907  1
  H  H78  1  0.500667  0.551953  0.464600  1
  O  O79  1  0.500281  0.466679  0.532086  1
  H  H80  1  0.499348  0.448094  0.535453  1
  O  O81  1  0.534694  0.428843  0.454473  1
  H  H82  1  0.536678  0.420869  0.437375  1
  H  H83  1  0.517182  0.425309  0.460870  1
  O  O84  1  0.628777  0.433667  0.432075  1
  H  H85  1  0.635437  0.440321  0.415598  1
  H  H86  1  0.617306  0.419003  0.428383  1
  O  O87  1  0.558866  0.532323  0.597315  1
  H  H88  1  0.572469  0.539282  0.608579  1
  H  H89  1  0.544671  0.544918  0.596806  1
  O  O90  1  0.582360  0.485305  0.581577  1
  H  H91  1  0.578009  0.481117  0.599457  1
  O  O92  1  0.414256  0.487136  0.600968  1
  H  H93  1  0.421757  0.498157  0.614483  1
  H  H94  1  0.413185  0.469380  0.607587  1
  O  O95  1  0.533950  0.501480  0.560181  1
  H  H96  1  0.526045  0.494277  0.575755  1
  O  O97  1  0.590981  0.587792  0.561067  1
  H  H98  1  0.600947  0.587492  0.577224  1
  H  H99  1  0.573426  0.593791  0.565121  1
  O  O100  1  0.630608  0.566328  0.529833  1
  H  H101  1  0.637785  0.583434  0.533373  1
  O  O102  1  0.465224  0.571194  0.545527  1
  H  H103  1  0.482674  0.574828  0.539017  1
  H  H104  1  0.463338  0.579077  0.562680  1
  O  O105  1  0.371014  0.566223  0.567980  1
  H  H106  1  0.379527  0.583121  0.569489  1
  H  H107  1  0.368473  0.559268  0.585456  1
  O  O108  1  0.343801  0.528539  0.539081  1
  H  H109  1  0.329609  0.540090  0.543775  1
  O  O110  1  0.441146  0.467777  0.402662  1
  H  H111  1  0.455354  0.455194  0.403154  1
  H  H112  1  0.427555  0.460825  0.391381  1
  O  O113  1  0.409123  0.412239  0.438885  1
  H  H114  1  0.426684  0.406280  0.434797  1
  H  H115  1  0.399117  0.412495  0.422753  1
  O  O116  1  0.656242  0.471243  0.460903  1
  H  H117  1  0.670479  0.459502  0.456836  1
  O  O118  1  0.585823  0.445057  0.465587  1
  H  H119  1  0.586326  0.428760  0.475174  1
  O  O120  1  0.655020  0.519021  0.517694  1
  H  H121  1  0.657418  0.517417  0.536282  1
  O  O122  1  0.631273  0.430393  0.486631  1
  H  H123  1  0.645363  0.418760  0.481848  1
  O  O124  1  0.595262  0.437257  0.526009  1
  H  H125  1  0.591205  0.418813  0.526490  1
  O  O126  1  0.622824  0.464494  0.551870  1
  H  H127  1  0.633488  0.476361  0.561849  1
  O  O128  1  0.648072  0.522925  0.472239  1
  H  H129  1  0.655254  0.527307  0.455376  1
  O  O130  1  0.585727  0.512807  0.399031  1
  H  H131  1  0.586903  0.530557  0.392409  1
  H  H132  1  0.578069  0.501852  0.385551  1
  O  O133  1  0.544402  0.521479  0.436280  1
  H  H134  1  0.543170  0.539008  0.429404  1
  O  O135  1  0.466061  0.498592  0.439810  1
  H  H136  1  0.473939  0.505825  0.424235  1
  O  O137  1  0.369468  0.433637  0.470106  1
  H  H138  1  0.362310  0.416523  0.466570  1
  O  O139  1  0.344963  0.480903  0.482286  1
  H  H140  1  0.342609  0.482534  0.463695  1
  O  O141  1  0.352006  0.476964  0.527769  1
  H  H142  1  0.344486  0.472421  0.544446  1
  O  O143  1  0.404674  0.562757  0.474076  1
  H  H144  1  0.408740  0.581200  0.473652  1
  O  O145  1  0.377163  0.535531  0.448163  1
  H  H146  1  0.366534  0.523622  0.438196  1
  O  O147  1  0.368560  0.569604  0.513495  1
  H  H148  1  0.353991  0.580733  0.518051  1
  O  O149  1  0.455584  0.478546  0.563729  1
  H  H150  1  0.456826  0.461022  0.570617  1
  O  O151  1  0.479285  0.517567  0.537576  1
  H  H152  1  0.487142  0.517743  0.554789  1
  O  O153  1  0.439239  0.527390  0.570528  1
  H  H154  1  0.428571  0.539943  0.579778  1
  O  O155  1  0.414166  0.554831  0.534222  1
  H  H156  1  0.413729  0.571275  0.524895  1
  O  O157  1  0.417642  0.514778  0.418450  1
  H  H158  1  0.421869  0.518953  0.400539  1
  O  O159  1  0.418368  0.419015  0.492019  1
  H  H160  1  0.413937  0.400663  0.491343  1
  O  O161  1  0.448551  0.450668  0.519857  1
  H  H162  1  0.458159  0.437696  0.510013  1
  O  O163  1  0.406890  0.461578  0.553209  1
  H  H164  1  0.388976  0.458618  0.558499  1
  O  O165  1  0.389790  0.514112  0.559848  1
  H  H166  1  0.374502  0.506212  0.567680  1
  O  O167  1  0.472302  0.491804  0.491789  1
  H  H168  1  0.488237  0.483969  0.484821  1
  O  O169  1  0.455473  0.544136  0.499507  1
  H  H170  1  0.447440  0.559630  0.492260  1
  O  O171  1  0.439047  0.455715  0.457617  1
  H  H172  1  0.453347  0.456756  0.469823  1
  O  O173  1  0.398512  0.467721  0.439257  1
  H  H174  1  0.382874  0.470313  0.429110  1
  O  O175  1  0.527713  0.508232  0.508217  1
  H  H176  1  0.511794  0.516077  0.515208  1
  O  O177  1  0.544598  0.455894  0.500490  1
  H  H178  1  0.552603  0.440389  0.507745  1
  O  O179  1  0.520710  0.482454  0.462442  1
  H  H180  1  0.512828  0.482279  0.445239  1
  O  O181  1  0.560720  0.472651  0.429455  1
  H  H182  1  0.571369  0.460109  0.420170  1
  O  O183  1  0.610186  0.486009  0.440311  1
  H  H184  1  0.625326  0.493433  0.431763  1
  O  O185  1  0.581722  0.581011  0.507952  1
  H  H186  1  0.586215  0.599349  0.508623  1
  O  O187  1  0.551475  0.549357  0.480151  1
  H  H188  1  0.541868  0.562343  0.489978  1
  O  O189  1  0.561000  0.544341  0.542352  1
  H  H190  1  0.546719  0.543287  0.530126  1
  O  O191  1  0.601514  0.532317  0.560740  1
  H  H192  1  0.617176  0.529647  0.570829  1
  O  O193  1  0.593054  0.538493  0.446733  1
  H  H194  1  0.610959  0.541429  0.441408  1
