# generated using pymatgen
data_AlH9O5
_symmetry_space_group_name_H-M   'P 1'
_cell_length_a   50.00000000
_cell_length_b   50.00000000
_cell_length_c   50.00000000
_cell_angle_alpha   90.00000000
_cell_angle_beta   90.00000000
_cell_angle_gamma   90.00000000
_symmetry_Int_Tables_number   1
_chemical_formula_structural   AlH9O5
_chemical_formula_sum   'Al3 H27 O15'
_cell_volume   125000.00000000
_cell_formula_units_Z   3
loop_
 _symmetry_equiv_pos_site_id
 _symmetry_equiv_pos_as_xyz
  1  'x, y, z'
loop_
 _atom_site_type_symbol
 _atom_site_label
 _atom_site_symmetry_multiplicity
 _atom_site_fract_x
 _atom_site_fract_y
 _atom_site_fract_z
 _atom_site_occupancy
  Al  Al1  1  0.460874  0.488624  0.499396  1
  O  O2  1  0.492277  0.469036  0.501215  1
  H  H3  1  0.487292  0.451259  0.505643  1
  O  O4  1  0.457915  0.490916  0.538073  1
  H  H5  1  0.442670  0.498044  0.546957  1
  H  H6  1  0.467759  0.480390  0.550469  1
  Al  Al7  1  0.509689  0.539172  0.500804  1
  O  O8  1  0.529220  0.508490  0.508160  1
  H  H9  1  0.544465  0.512603  0.518706  1
  O  O10  1  0.541986  0.560280  0.504297  1
  H  H11  1  0.560040  0.554831  0.501765  1
  H  H12  1  0.541548  0.579271  0.505539  1
  Al  Al13  1  0.529485  0.472130  0.500912  1
  O  O14  1  0.532395  0.434288  0.492628  1
  H  H15  1  0.519468  0.422762  0.484775  1
  H  H16  1  0.549238  0.425428  0.492482  1
  O  O17  1  0.440373  0.455475  0.502206  1
  H  H18  1  0.435460  0.444796  0.487255  1
  H  H19  1  0.432677  0.448199  0.517989  1
  O  O20  1  0.532670  0.462431  0.538348  1
  H  H21  1  0.533030  0.444470  0.544610  1
  H  H22  1  0.529088  0.473986  0.553016  1
  O  O23  1  0.491983  0.573400  0.494149  1
  H  H24  1  0.491281  0.583231  0.477889  1
  H  H25  1  0.483152  0.583247  0.507829  1
  O  O26  1  0.477405  0.521759  0.495763  1
  H  H27  1  0.465394  0.534340  0.488128  1
  O  O28  1  0.501972  0.546374  0.537845  1
  H  H29  1  0.514243  0.553601  0.550454  1
  H  H30  1  0.487846  0.537681  0.547128  1
  O  O31  1  0.568529  0.471643  0.502006  1
  H  H32  1  0.579779  0.475549  0.487193  1
  H  H33  1  0.579151  0.467892  0.517318  1
  O  O34  1  0.426156  0.506167  0.497658  1
  H  H35  1  0.421557  0.524055  0.502179  1
  H  H36  1  0.410064  0.496171  0.495763  1
  O  O37  1  0.533042  0.478838  0.463340  1
  H  H38  1  0.534834  0.496114  0.455636  1
  H  H39  1  0.534132  0.465506  0.449840  1
  O  O40  1  0.457621  0.483031  0.461305  1
  H  H41  1  0.471333  0.475417  0.450568  1
  H  H42  1  0.444992  0.491760  0.450087  1
  O  O43  1  0.517046  0.537517  0.462131  1
  H  H44  1  0.503336  0.535115  0.449104  1
  H  H45  1  0.530824  0.548067  0.454241  1
