# generated using pymatgen
data_Al4(H3O2)7
_symmetry_space_group_name_H-M   'P 1'
_cell_length_a   50.00000000
_cell_length_b   50.00000000
_cell_length_c   50.00000000
_cell_angle_alpha   90.00000000
_cell_angle_beta   90.00000000
_cell_angle_gamma   90.00000000
_symmetry_Int_Tables_number   1
_chemical_formula_structural   Al4(H3O2)7
_chemical_formula_sum   'Al8 H42 O28'
_cell_volume   125000.00000000
_cell_formula_units_Z   2
loop_
 _symmetry_equiv_pos_site_id
 _symmetry_equiv_pos_as_xyz
  1  'x, y, z'
loop_
 _atom_site_type_symbol
 _atom_site_label
 _atom_site_symmetry_multiplicity
 _atom_site_fract_x
 _atom_site_fract_y
 _atom_site_fract_z
 _atom_site_occupancy
  Al  Al1  1  0.483026  0.500056  0.496755  1
  Al  Al2  1  0.483601  0.439648  0.497510  1
  Al  Al3  1  0.535720  0.470331  0.488876  1
  Al  Al4  1  0.535922  0.530105  0.489965  1
  Al  Al5  1  0.483439  0.560427  0.497555  1
  Al  Al6  1  0.431241  0.530353  0.505188  1
  Al  Al7  1  0.431396  0.469567  0.505647  1
  Al  Al8  1  0.592172  0.499667  0.513452  1
  O  O9  1  0.518162  0.499808  0.510496  1
  O  O10  1  0.447260  0.499967  0.483477  1
  O  O11  1  0.469636  0.471581  0.518680  1
  O  O12  1  0.495842  0.470887  0.475783  1
  O  O13  1  0.496116  0.529428  0.476190  1
  O  O14  1  0.469484  0.528537  0.518596  1
  O  O15  1  0.518580  0.444084  0.508316  1
  O  O16  1  0.542364  0.500642  0.469061  1
  O  O17  1  0.518235  0.556201  0.509221  1
  O  O18  1  0.448578  0.556561  0.486076  1
  O  O19  1  0.421417  0.500083  0.523635  1
  O  O20  1  0.448620  0.443411  0.486404  1
  O  O21  1  0.567735  0.471995  0.507231  1
  O  O22  1  0.566185  0.526538  0.510671  1
  O  O23  1  0.587252  0.496884  0.551722  1
  O  O24  1  0.602628  0.501470  0.476477  1
  O  O25  1  0.621062  0.474241  0.518616  1
  O  O26  1  0.618217  0.527344  0.520619  1
  H  H27  1  0.521103  0.499556  0.529323  1
  H  H28  1  0.444391  0.499926  0.464614  1
  H  H29  1  0.472721  0.472172  0.537496  1
  H  H30  1  0.492582  0.470519  0.456990  1
  H  H31  1  0.493506  0.529876  0.457305  1
  H  H32  1  0.472417  0.527887  0.537431  1
  H  H33  1  0.527002  0.434041  0.522012  1
  H  H34  1  0.549417  0.500981  0.451508  1
  H  H35  1  0.526542  0.567964  0.521556  1
  H  H36  1  0.439938  0.568728  0.474377  1
  H  H37  1  0.410119  0.500163  0.538862  1
  H  H38  1  0.439872  0.431185  0.474850  1
  H  H39  1  0.574760  0.455195  0.512647  1
  H  H40  1  0.566272  0.537541  0.526151  1
  H  H41  1  0.596903  0.506904  0.564693  1
  H  H42  1  0.574235  0.486113  0.560442  1
  H  H43  1  0.602777  0.487055  0.464085  1
  H  H44  1  0.613029  0.515753  0.469421  1
  H  H45  1  0.633567  0.468520  0.505481  1
  H  H46  1  0.625293  0.466122  0.535286  1
  H  H47  1  0.615748  0.546017  0.518009  1
  H  H48  1  0.636607  0.523929  0.524095  1
  O  O49  1  0.548572  0.554707  0.463910  1
  H  H50  1  0.555761  0.571711  0.468584  1
  H  H51  1  0.552905  0.551103  0.445745  1
  O  O52  1  0.491229  0.587209  0.471778  1
  H  H53  1  0.484789  0.588438  0.453904  1
  H  H54  1  0.502761  0.601986  0.475165  1
  O  O55  1  0.399676  0.532938  0.484222  1
  H  H56  1  0.382119  0.530275  0.491116  1
  H  H57  1  0.398339  0.537509  0.465789  1
  O  O58  1  0.399345  0.466216  0.485673  1
  H  H59  1  0.397443  0.462156  0.467167  1
  H  H60  1  0.382035  0.468408  0.493331  1
  O  O61  1  0.418753  0.446365  0.532926  1
  H  H62  1  0.419061  0.448954  0.551786  1
  H  H63  1  0.411149  0.429284  0.529243  1
  O  O64  1  0.476129  0.414095  0.524723  1
  H  H65  1  0.464498  0.399203  0.522251  1
  H  H66  1  0.482585  0.413839  0.542625  1
  O  O67  1  0.490853  0.412476  0.472032  1
  H  H68  1  0.502568  0.397864  0.475526  1
  H  H69  1  0.484578  0.411202  0.454105  1
  O  O70  1  0.546728  0.446378  0.461198  1
  H  H71  1  0.547762  0.449867  0.442517  1
  H  H72  1  0.554255  0.429195  0.464497  1
  O  O73  1  0.418131  0.553753  0.532042  1
  H  H74  1  0.410659  0.570847  0.528158  1
  H  H75  1  0.418194  0.551274  0.550917  1
  O  O76  1  0.475637  0.586326  0.524314  1
  H  H77  1  0.481599  0.586570  0.542389  1
  H  H78  1  0.464012  0.601162  0.521514  1
