# generated using pymatgen
data_AlH4O3
_symmetry_space_group_name_H-M   'P 1'
_cell_length_a   50.00000000
_cell_length_b   50.00000000
_cell_length_c   50.00000000
_cell_angle_alpha   90.00000000
_cell_angle_beta   90.00000000
_cell_angle_gamma   90.00000000
_symmetry_Int_Tables_number   1
_chemical_formula_structural   AlH4O3
_chemical_formula_sum   'Al6 H24 O18'
_cell_volume   125000.00000000
_cell_formula_units_Z   6
loop_
 _symmetry_equiv_pos_site_id
 _symmetry_equiv_pos_as_xyz
  1  'x, y, z'
loop_
 _atom_site_type_symbol
 _atom_site_label
 _atom_site_symmetry_multiplicity
 _atom_site_fract_x
 _atom_site_fract_y
 _atom_site_fract_z
 _atom_site_occupancy
  Al  Al1  1  0.443272  0.496017  0.500037  1
  O  O2  1  0.463816  0.475602  0.522141  1
  Al  Al3  1  0.475107  0.448914  0.499981  1
  O  O4  1  0.503071  0.456355  0.477842  1
  O  O5  1  0.443713  0.527457  0.519711  1
  O  O6  1  0.460689  0.519108  0.477859  1
  O  O7  1  0.504378  0.437637  0.519758  1
  O  O8  1  0.448092  0.465010  0.480313  1
  Al  Al9  1  0.531822  0.452884  0.500039  1
  O  O10  1  0.552522  0.422159  0.500067  1
  O  O11  1  0.556287  0.472543  0.480289  1
  O  O12  1  0.539311  0.480892  0.522141  1
  Al  Al13  1  0.468178  0.547116  0.499961  1
  Al  Al14  1  0.556728  0.503983  0.499964  1
  O  O15  1  0.495622  0.562363  0.480242  1
  O  O16  1  0.447478  0.577841  0.499933  1
  O  O17  1  0.496929  0.543645  0.522158  1
  O  O18  1  0.551908  0.534990  0.519687  1
  O  O19  1  0.536184  0.524398  0.477859  1
  Al  Al20  1  0.524894  0.551086  0.500019  1
  H  H21  1  0.570051  0.420884  0.492742  1
  H  H22  1  0.504729  0.432482  0.537966  1
  H  H23  1  0.502514  0.463451  0.460306  1
  H  H24  1  0.443771  0.462112  0.462115  1
  H  H25  1  0.469807  0.479718  0.539613  1
  H  H26  1  0.439008  0.529753  0.537900  1
  H  H27  1  0.467256  0.515866  0.460411  1
  H  H28  1  0.452909  0.594586  0.492674  1
  H  H29  1  0.497486  0.536549  0.539693  1
  H  H30  1  0.495271  0.567520  0.462035  1
  H  H31  1  0.556230  0.537889  0.537885  1
  H  H32  1  0.530193  0.520282  0.460387  1
  H  H33  1  0.560992  0.470248  0.462100  1
  H  H34  1  0.532744  0.484134  0.539589  1
  H  H35  1  0.429945  0.579113  0.507249  1
  H  H36  1  0.547093  0.405416  0.507332  1
  H  H37  1  0.466465  0.399751  0.507194  1
  O  O38  1  0.458825  0.415622  0.499965  1
  H  H39  1  0.441600  0.411999  0.492701  1
  H  H40  1  0.394491  0.506443  0.507288  1
  O  O41  1  0.406313  0.493393  0.500043  1
  H  H42  1  0.396478  0.478779  0.492813  1
  H  H43  1  0.533535  0.600249  0.492805  1
  O  O44  1  0.541175  0.584379  0.500034  1
  H  H45  1  0.558401  0.588001  0.507298  1
  H  H46  1  0.603522  0.521223  0.507183  1
  O  O47  1  0.593686  0.506606  0.499958  1
  H  H48  1  0.605509  0.493554  0.492718  1
