# generated using pymatgen
data_Al4H25O16
_symmetry_space_group_name_H-M   'P 1'
_cell_length_a   50.00000000
_cell_length_b   50.00000000
_cell_length_c   50.00000000
_cell_angle_alpha   90.00000000
_cell_angle_beta   90.00000000
_cell_angle_gamma   90.00000000
_symmetry_Int_Tables_number   1
_chemical_formula_structural   Al4H25O16
_chemical_formula_sum   'Al8 H50 O32'
_cell_volume   125000.00000000
_cell_formula_units_Z   2
loop_
 _symmetry_equiv_pos_site_id
 _symmetry_equiv_pos_as_xyz
  1  'x, y, z'
loop_
 _atom_site_type_symbol
 _atom_site_label
 _atom_site_symmetry_multiplicity
 _atom_site_fract_x
 _atom_site_fract_y
 _atom_site_fract_z
 _atom_site_occupancy
  Al  Al1  1  0.496723  0.468973  0.500095  1
  Al  Al2  1  0.503277  0.531027  0.499905  1
  Al  Al3  1  0.454291  0.504761  0.520659  1
  Al  Al4  1  0.545709  0.495239  0.479341  1
  Al  Al5  1  0.432977  0.444871  0.494237  1
  Al  Al6  1  0.446298  0.567780  0.494168  1
  Al  Al7  1  0.567023  0.555129  0.505762  1
  Al  Al8  1  0.553702  0.432219  0.505833  1
  O  O9  1  0.477636  0.502139  0.489419  1
  O  O10  1  0.522364  0.497861  0.510581  1
  O  O11  1  0.476028  0.475287  0.530885  1
  O  O12  1  0.481422  0.529452  0.530470  1
  O  O13  1  0.523972  0.524713  0.469116  1
  O  O14  1  0.518578  0.470547  0.469530  1
  O  O15  1  0.518731  0.441976  0.513613  1
  O  O16  1  0.469073  0.447807  0.486230  1
  O  O17  1  0.481269  0.558024  0.486387  1
  O  O18  1  0.530927  0.552193  0.513770  1
  O  O19  1  0.429675  0.479662  0.506738  1
  O  O20  1  0.435838  0.533724  0.504790  1
  O  O21  1  0.570325  0.520338  0.493262  1
  O  O22  1  0.564162  0.466276  0.495210  1
  O  O23  1  0.436359  0.507449  0.554573  1
  O  O24  1  0.563641  0.492551  0.445428  1
  O  O25  1  0.409617  0.579582  0.499999  1
  O  O26  1  0.454990  0.580078  0.529576  1
  O  O27  1  0.435717  0.561991  0.457272  1
  O  O28  1  0.453318  0.604586  0.483339  1
  O  O29  1  0.560157  0.570369  0.470980  1
  O  O30  1  0.577409  0.546707  0.542211  1
  O  O31  1  0.567058  0.592176  0.518355  1
  O  O32  1  0.605312  0.560583  0.499444  1
  O  O33  1  0.564283  0.438009  0.542728  1
  O  O34  1  0.545010  0.419922  0.470424  1
  O  O35  1  0.590383  0.420418  0.500001  1
  O  O36  1  0.546682  0.395414  0.516661  1
  O  O37  1  0.422592  0.453294  0.457789  1
  O  O38  1  0.439843  0.429631  0.529020  1
  O  O39  1  0.432942  0.407825  0.481645  1
  O  O40  1  0.394688  0.439417  0.500556  1
  H  H41  1  0.469585  0.502956  0.472255  1
  H  H42  1  0.530415  0.497044  0.527745  1
  H  H43  1  0.484048  0.474790  0.548041  1
  H  H44  1  0.489155  0.528345  0.547723  1
  H  H45  1  0.515952  0.525209  0.451959  1
  H  H46  1  0.510845  0.471655  0.452277  1
  H  H47  1  0.509633  0.428874  0.523862  1
  H  H48  1  0.475085  0.433114  0.475835  1
  H  H49  1  0.490367  0.571126  0.476138  1
  H  H50  1  0.524915  0.566886  0.524165  1
  H  H51  1  0.411818  0.485958  0.506285  1
  H  H52  1  0.421301  0.527949  0.494079  1
  H  H53  1  0.588182  0.514042  0.493715  1
  H  H54  1  0.578699  0.472051  0.505921  1
  H  H55  1  0.429569  0.492580  0.564274  1
  H  H56  1  0.427559  0.523222  0.560499  1
  H  H57  1  0.570431  0.507420  0.435727  1
  H  H58  1  0.572441  0.476778  0.439501  1
  H  H59  1  0.396906  0.570148  0.510522  1
  H  H60  1  0.403254  0.597208  0.496790  1
  H  H61  1  0.442819  0.589353  0.540857  1
  H  H62  1  0.466207  0.568967  0.540176  1
  H  H63  1  0.446968  0.554411  0.443972  1
  H  H64  1  0.418417  0.565030  0.450005  1
  H  H65  1  0.461428  0.617611  0.494553  1
  H  H66  1  0.450808  0.611780  0.465930  1
  H  H67  1  0.573224  0.578915  0.460148  1
  H  H68  1  0.547794  0.561199  0.459814  1
  H  H69  1  0.565142  0.541165  0.555630  1
  H  H70  1  0.594953  0.541421  0.547269  1
  H  H71  1  0.562115  0.607286  0.507941  1
  H  H72  1  0.571036  0.597628  0.536116  1
  H  H73  1  0.614671  0.575611  0.506406  1
  H  H74  1  0.615656  0.553106  0.485351  1
  H  H75  1  0.553032  0.445589  0.556029  1
  H  H76  1  0.581583  0.434970  0.549995  1
  H  H77  1  0.557181  0.410647  0.459143  1
  H  H78  1  0.533793  0.431033  0.459824  1
  H  H79  1  0.596746  0.402792  0.503210  1
  H  H80  1  0.603094  0.429852  0.489478  1
  H  H81  1  0.538572  0.382389  0.505448  1
  H  H82  1  0.549192  0.388220  0.534070  1
  H  H83  1  0.434858  0.458836  0.444370  1
  H  H84  1  0.405047  0.458579  0.452731  1
  H  H85  1  0.426775  0.421085  0.539852  1
  H  H86  1  0.452206  0.438801  0.540186  1
  H  H87  1  0.437885  0.392714  0.492059  1
  H  H88  1  0.428964  0.402372  0.463884  1
  H  H89  1  0.385329  0.424389  0.493594  1
  H  H90  1  0.384344  0.446894  0.514648  1
