# generated using pymatgen
data_Al11(H27O19)2
_symmetry_space_group_name_H-M   'P 1'
_cell_length_a   50.00000000
_cell_length_b   50.00000000
_cell_length_c   50.00000000
_cell_angle_alpha   90.00000000
_cell_angle_beta   90.00000000
_cell_angle_gamma   90.00000000
_symmetry_Int_Tables_number   1
_chemical_formula_structural   Al11(H27O19)2
_chemical_formula_sum   'Al11 H54 O38'
_cell_volume   125000.00000000
_cell_formula_units_Z   1
loop_
 _symmetry_equiv_pos_site_id
 _symmetry_equiv_pos_as_xyz
  1  'x, y, z'
loop_
 _atom_site_type_symbol
 _atom_site_label
 _atom_site_symmetry_multiplicity
 _atom_site_fract_x
 _atom_site_fract_y
 _atom_site_fract_z
 _atom_site_occupancy
  Al  Al1  1  0.451018  0.439932  0.500753  1
  Al  Al2  1  0.397826  0.468396  0.499620  1
  Al  Al3  1  0.396150  0.528957  0.498915  1
  Al  Al4  1  0.447731  0.560309  0.500651  1
  Al  Al5  1  0.502119  0.532055  0.500031  1
  Al  Al6  1  0.503630  0.470860  0.499194  1
  Al  Al7  1  0.553644  0.442292  0.498854  1
  Al  Al8  1  0.604780  0.470440  0.501135  1
  Al  Al9  1  0.603308  0.528705  0.500734  1
  Al  Al10  1  0.553178  0.558562  0.500077  1
  Al  Al11  1  0.449884  0.500188  0.499365  1
  O  O12  1  0.432950  0.471511  0.518825  1
  O  O13  1  0.416210  0.498994  0.480300  1
  O  O14  1  0.431055  0.527795  0.518533  1
  O  O15  1  0.464312  0.530044  0.480893  1
  O  O16  1  0.482769  0.500948  0.518525  1
  O  O17  1  0.465710  0.471221  0.480760  1
  O  O18  1  0.511054  0.501822  0.480678  1
  O  O19  1  0.533563  0.466968  0.519498  1
  O  O20  1  0.575283  0.464987  0.479017  1
  O  O21  1  0.594238  0.499420  0.521905  1
  O  O22  1  0.571847  0.532500  0.481027  1
  O  O23  1  0.531104  0.536807  0.521537  1
  O  O24  1  0.482566  0.445829  0.517532  1
  O  O25  1  0.418254  0.442007  0.484028  1
  O  O26  1  0.383426  0.498487  0.515108  1
  O  O27  1  0.415489  0.556200  0.483277  1
  O  O28  1  0.479382  0.556041  0.517809  1
  O  O29  1  0.522125  0.446754  0.478336  1
  O  O30  1  0.584981  0.443460  0.518444  1
  O  O31  1  0.618966  0.500182  0.482993  1
  O  O32  1  0.584956  0.555252  0.519232  1
  O  O33  1  0.520974  0.556546  0.479959  1
  O  O34  1  0.465059  0.414046  0.476876  1
  O  O35  1  0.439289  0.414799  0.526972  1
  O  O36  1  0.381032  0.445505  0.524965  1
  O  O37  1  0.370012  0.464025  0.474096  1
  O  O38  1  0.368334  0.531504  0.473042  1
  O  O39  1  0.377866  0.551645  0.523391  1
  O  O40  1  0.433974  0.584631  0.526606  1
  O  O41  1  0.461318  0.587058  0.477379  1
  O  O42  1  0.537582  0.413624  0.521757  1
  O  O43  1  0.563767  0.410519  0.477256  1
  O  O44  1  0.626055  0.445684  0.478792  1
  O  O45  1  0.635247  0.465358  0.525856  1
  O  O46  1  0.636466  0.536170  0.521351  1
  O  O47  1  0.620268  0.555931  0.475461  1
  O  O48  1  0.567542  0.587363  0.477418  1
  O  O49  1  0.541519  0.589439  0.522035  1
  H  H50  1  0.433031  0.471628  0.537893  1
  H  H51  1  0.416125  0.498682  0.461237  1
  H  H52  1  0.430465  0.527318  0.537577  1
  H  H53  1  0.464293  0.530702  0.461851  1
  H  H54  1  0.482721  0.500769  0.537553  1
  H  H55  1  0.465656  0.470697  0.461720  1
  H  H56  1  0.521044  0.502239  0.464663  1
  H  H57  1  0.536364  0.470910  0.537736  1
  H  H58  1  0.571876  0.473517  0.462580  1
  H  H59  1  0.582845  0.499258  0.536894  1
  H  H60  1  0.569636  0.528323  0.462781  1
  H  H61  1  0.534270  0.531519  0.539366  1
  H  H62  1  0.490847  0.434549  0.530271  1
  H  H63  1  0.411511  0.429547  0.471443  1
  H  H64  1  0.368919  0.498193  0.527300  1
  H  H65  1  0.408777  0.567540  0.469672  1
  H  H66  1  0.485671  0.565850  0.532704  1
  H  H67  1  0.520859  0.444527  0.459608  1
  H  H68  1  0.589156  0.435308  0.534927  1
  H  H69  1  0.628212  0.499870  0.466564  1
  H  H70  1  0.589945  0.565038  0.534563  1
  H  H71  1  0.519939  0.558870  0.461229  1
  H  H72  1  0.482349  0.406476  0.479340  1
  H  H73  1  0.457443  0.407158  0.460873  1
  H  H74  1  0.445088  0.413839  0.545065  1
  H  H75  1  0.428690  0.399487  0.523070  1
  H  H76  1  0.374104  0.428298  0.520640  1
  H  H77  1  0.378135  0.448825  0.543489  1
  H  H78  1  0.371676  0.459031  0.455804  1
  H  H79  1  0.351574  0.466481  0.478159  1
  H  H80  1  0.369968  0.536592  0.454768  1
  H  H81  1  0.349964  0.528141  0.476813  1
  H  H82  1  0.375136  0.549145  0.542061  1
  H  H83  1  0.370049  0.568223  0.518231  1
  H  H84  1  0.422686  0.599366  0.522408  1
  H  H85  1  0.439760  0.586278  0.544651  1
  H  H86  1  0.452737  0.596397  0.463206  1
  H  H87  1  0.478501  0.594712  0.480374  1
  H  H88  1  0.534291  0.396207  0.514942  1
  H  H89  1  0.540054  0.412414  0.540548  1
  H  H90  1  0.577233  0.398525  0.483245  1
  H  H91  1  0.563386  0.410099  0.458275  1
  H  H92  1  0.644769  0.447227  0.475973  1
  H  H93  1  0.618209  0.438437  0.463107  1
  H  H94  1  0.643982  0.448790  0.528943  1
  H  H95  1  0.635349  0.475336  0.542007  1
  H  H96  1  0.652532  0.527355  0.516323  1
  H  H97  1  0.636538  0.538271  0.540222  1
  H  H98  1  0.622463  0.552423  0.456915  1
  H  H99  1  0.635462  0.565694  0.481383  1
  H  H100  1  0.558193  0.597260  0.464195  1
  H  H101  1  0.585922  0.586287  0.472661  1
  H  H102  1  0.538223  0.588004  0.540670  1
  H  H103  1  0.548555  0.606712  0.518474  1
