# generated using pymatgen
data_Al5(H4O3)6
_symmetry_space_group_name_H-M   'P 1'
_cell_length_a   50.00000000
_cell_length_b   50.00000000
_cell_length_c   50.00000000
_cell_angle_alpha   90.00000000
_cell_angle_beta   90.00000000
_cell_angle_gamma   90.00000000
_symmetry_Int_Tables_number   1
_chemical_formula_structural   Al5(H4O3)6
_chemical_formula_sum   'Al20 H96 O72'
_cell_volume   125000.00000000
_cell_formula_units_Z   4
loop_
 _symmetry_equiv_pos_site_id
 _symmetry_equiv_pos_as_xyz
  1  'x, y, z'
loop_
 _atom_site_type_symbol
 _atom_site_label
 _atom_site_symmetry_multiplicity
 _atom_site_fract_x
 _atom_site_fract_y
 _atom_site_fract_z
 _atom_site_occupancy
  Al  Al1  1  0.612693  0.395584  0.496315  1
  Al  Al2  1  0.643497  0.444647  0.498554  1
  O  O3  1  0.642530  0.410092  0.513192  1
  O  O4  1  0.587162  0.402130  0.522523  1
  O  O5  1  0.624727  0.464302  0.523433  1
  H  H6  1  0.655071  0.402516  0.525049  1
  H  H7  1  0.589734  0.411642  0.538564  1
  H  H8  1  0.620685  0.460297  0.541384  1
  O  O9  1  0.614177  0.429297  0.480674  1
  H  H10  1  0.598312  0.439748  0.480977  1
  O  O11  1  0.642142  0.477699  0.481012  1
  H  H12  1  0.636877  0.477324  0.462841  1
  Al  Al13  1  0.616873  0.496436  0.504829  1
  Al  Al14  1  0.555294  0.397113  0.503664  1
  O  O15  1  0.581325  0.381898  0.481149  1
  Al  Al16  1  0.647309  0.545524  0.501777  1
  O  O17  1  0.644357  0.515692  0.523170  1
  O  O18  1  0.588387  0.508474  0.525637  1
  O  O19  1  0.626205  0.568628  0.522103  1
  H  H20  1  0.656972  0.507513  0.534498  1
  H  H21  1  0.588790  0.511495  0.544218  1
  H  H22  1  0.620743  0.565810  0.539896  1
  O  O23  1  0.619848  0.528083  0.483936  1
  H  H24  1  0.603011  0.536549  0.481996  1
  O  O25  1  0.649001  0.577686  0.482277  1
  H  H26  1  0.652866  0.577930  0.463807  1
  Al  Al27  1  0.623851  0.598521  0.500353  1
  Al  Al28  1  0.557827  0.498579  0.504791  1
  O  O29  1  0.587159  0.483422  0.485422  1
  O  O30  1  0.595146  0.615190  0.516944  1
  H  H31  1  0.594953  0.621988  0.534533  1
  Al  Al32  1  0.565470  0.600647  0.498487  1
  O  O33  1  0.594752  0.589357  0.478696  1
  H  H34  1  0.579034  0.377176  0.463043  1
  Al  Al35  1  0.434622  0.400582  0.500626  1
  O  O36  1  0.553438  0.429352  0.485120  1
  O  O37  1  0.531757  0.416111  0.524669  1
  Al  Al38  1  0.468031  0.448204  0.500465  1
  O  O39  1  0.461298  0.416087  0.520685  1
  O  O40  1  0.405719  0.413804  0.520504  1
  O  O41  1  0.496207  0.459359  0.522762  1
  O  O42  1  0.442334  0.469873  0.517845  1
  H  H43  1  0.475930  0.407564  0.528977  1
  H  H44  1  0.406965  0.420433  0.538099  1
  H  H45  1  0.495563  0.464414  0.540874  1
  H  H46  1  0.442508  0.471274  0.536653  1
  O  O47  1  0.441759  0.429869  0.479175  1
  H  H48  1  0.428030  0.440919  0.472402  1
  O  O49  1  0.467361  0.478945  0.478307  1
  H  H50  1  0.469074  0.479053  0.459546  1
  Al  Al51  1  0.527288  0.448912  0.504823  1
  O  O52  1  0.531582  0.480211  0.484053  1
  O  O53  1  0.498776  0.433661  0.482708  1
  H  H54  1  0.515636  0.489709  0.480384  1
  H  H55  1  0.586378  0.484228  0.466598  1
  H  H56  1  0.499856  0.437123  0.464162  1
  H  H57  1  0.554490  0.431030  0.466372  1
  O  O58  1  0.550702  0.468541  0.526591  1
  H  H59  1  0.563876  0.460952  0.537656  1
  H  H60  1  0.528698  0.414055  0.543141  1
  Al  Al61  1  0.442529  0.501463  0.495782  1
  Al  Al62  1  0.376185  0.401779  0.501395  1
  O  O63  1  0.404549  0.385785  0.483368  1
  O  O64  1  0.558253  0.530218  0.482669  1
  O  O65  1  0.533572  0.521686  0.522388  1
  Al  Al66  1  0.472975  0.551160  0.495463  1
  O  O67  1  0.468533  0.520115  0.516583  1
  O  O68  1  0.412847  0.516123  0.514796  1
  O  O69  1  0.501399  0.566644  0.517554  1
  O  O70  1  0.446566  0.570791  0.514819  1
  H  H71  1  0.484400  0.510569  0.520449  1
  H  H72  1  0.413455  0.515322  0.533627  1
  H  H73  1  0.500216  0.563152  0.536093  1
  H  H74  1  0.445440  0.569410  0.533587  1
  O  O75  1  0.449445  0.531379  0.473842  1
  H  H76  1  0.436267  0.539181  0.462929  1
  O  O77  1  0.468238  0.583583  0.475198  1
  H  H78  1  0.472010  0.585731  0.456873  1
  Al  Al79  1  0.532383  0.552122  0.499833  1
  O  O80  1  0.539102  0.583600  0.479268  1
  O  O81  1  0.504132  0.540470  0.477770  1
  H  H82  1  0.526454  0.591085  0.467505  1
  H  H83  1  0.594380  0.580062  0.462319  1
  H  H84  1  0.504751  0.535207  0.459713  1
  H  H85  1  0.557735  0.528603  0.463877  1
  O  O86  1  0.558138  0.571744  0.520603  1
  H  H87  1  0.571634  0.561874  0.529323  1
  H  H88  1  0.531361  0.521431  0.541092  1
  Al  Al89  1  0.444521  0.602740  0.495796  1
  Al  Al90  1  0.383515  0.502813  0.494986  1
  O  O91  1  0.412315  0.490533  0.474599  1
  O  O92  1  0.418273  0.618051  0.518002  1
  H  H93  1  0.420418  0.622975  0.536073  1
  Al  Al94  1  0.387084  0.604006  0.502813  1
  O  O95  1  0.412797  0.597317  0.476831  1
  H  H96  1  0.404539  0.378327  0.466053  1
  O  O97  1  0.371559  0.430024  0.477699  1
  O  O98  1  0.349922  0.422530  0.518036  1
  Al  Al99  1  0.351913  0.454291  0.497984  1
  O  O100  1  0.356045  0.483903  0.476354  1
  H  H101  1  0.343031  0.492291  0.465637  1
  H  H102  1  0.412241  0.489412  0.455789  1
  H  H103  1  0.379120  0.432936  0.460710  1
  O  O104  1  0.379859  0.471245  0.515700  1
  H  H105  1  0.396231  0.462098  0.518313  1
  H  H106  1  0.345314  0.422055  0.536331  1
  O  O107  1  0.376122  0.535029  0.476232  1
  O  O108  1  0.358021  0.521803  0.518561  1
  Al  Al109  1  0.356748  0.554677  0.500679  1
  O  O110  1  0.357506  0.589111  0.485802  1
  H  H111  1  0.345030  0.596513  0.473768  1
  H  H112  1  0.410314  0.587606  0.460895  1
  H  H113  1  0.379445  0.538569  0.458036  1
  O  O114  1  0.385708  0.570418  0.518770  1
  H  H115  1  0.401664  0.560103  0.518751  1
  H  H116  1  0.363360  0.522454  0.536705  1
  O  O117  1  0.651128  0.615338  0.524624  1
  H  H118  1  0.657136  0.633118  0.521857  1
  H  H119  1  0.651855  0.611373  0.543157  1
  O  O120  1  0.632014  0.631166  0.479441  1
  H  H121  1  0.619448  0.645389  0.480008  1
  H  H122  1  0.640863  0.631463  0.462661  1
  O  O123  1  0.681103  0.557262  0.519836  1
  H  H124  1  0.685759  0.552065  0.537472  1
  H  H125  1  0.685888  0.575481  0.517444  1
  O  O126  1  0.672036  0.527073  0.476791  1
  H  H127  1  0.667340  0.508615  0.474997  1
  H  H128  1  0.690709  0.528351  0.479844  1
  O  O129  1  0.677180  0.453199  0.518140  1
  H  H130  1  0.677668  0.455008  0.537007  1
  H  H131  1  0.693786  0.446246  0.512159  1
  O  O132  1  0.669580  0.431512  0.471562  1
  H  H133  1  0.674861  0.441809  0.456537  1
  H  H134  1  0.668702  0.413192  0.466617  1
  O  O135  1  0.621598  0.359228  0.509258  1
  H  H136  1  0.608075  0.345991  0.507638  1
  H  H137  1  0.631771  0.355611  0.524859  1
  O  O138  1  0.634606  0.383553  0.464281  1
  H  H139  1  0.640093  0.365425  0.462870  1
  H  H140  1  0.629470  0.389679  0.447055  1
  O  O141  1  0.550501  0.363511  0.524535  1
  H  H142  1  0.533615  0.354953  0.525580  1
  H  H143  1  0.559688  0.361346  0.540976  1
  O  O144  1  0.524134  0.382977  0.483757  1
  H  H145  1  0.510857  0.396804  0.482231  1
  H  H146  1  0.524969  0.373227  0.467521  1
  O  O147  1  0.436868  0.366943  0.522135  1
  H  H148  1  0.443681  0.367112  0.539840  1
  H  H149  1  0.421445  0.355859  0.521783  1
  O  O150  1  0.459071  0.380382  0.476329  1
  H  H151  1  0.460184  0.361453  0.476282  1
  H  H152  1  0.460982  0.386898  0.458611  1
  O  O153  1  0.372895  0.372064  0.528206  1
  H  H154  1  0.375344  0.374783  0.546822  1
  H  H155  1  0.361417  0.357175  0.525641  1
  O  O156  1  0.349757  0.378771  0.482462  1
  H  H157  1  0.350189  0.377178  0.463547  1
  H  H158  1  0.331551  0.378929  0.487849  1
  O  O159  1  0.317673  0.445280  0.478781  1
  H  H160  1  0.306285  0.431634  0.485431  1
  H  H161  1  0.318004  0.443865  0.459856  1
  O  O162  1  0.327625  0.473579  0.522830  1
  H  H163  1  0.308859  0.473279  0.520143  1
  H  H164  1  0.333188  0.491839  0.524438  1
  O  O165  1  0.323359  0.545645  0.480728  1
  H  H166  1  0.306604  0.552098  0.486862  1
  H  H167  1  0.322908  0.544413  0.461810  1
  O  O168  1  0.330234  0.567810  0.527299  1
  H  H169  1  0.330687  0.586251  0.531830  1
  H  H170  1  0.325164  0.557758  0.542561  1
  O  O171  1  0.364880  0.616194  0.534511  1
  H  H172  1  0.369778  0.610130  0.551828  1
  H  H173  1  0.359348  0.634319  0.535771  1
  O  O174  1  0.378009  0.640154  0.489413  1
  H  H175  1  0.367813  0.643525  0.473771  1
  H  H176  1  0.391464  0.653478  0.490868  1
  O  O177  1  0.449257  0.636107  0.474550  1
  H  H178  1  0.440204  0.637984  0.457998  1
  H  H179  1  0.466083  0.644789  0.473554  1
  O  O180  1  0.562694  0.633107  0.474681  1
  H  H181  1  0.568966  0.631011  0.456883  1
  H  H182  1  0.547437  0.644381  0.474126  1
  O  O183  1  0.540763  0.621644  0.521842  1
  H  H184  1  0.536854  0.612226  0.537872  1
  H  H185  1  0.542975  0.640009  0.526085  1
  O  O186  1  0.475527  0.617260  0.515689  1
  H  H187  1  0.474557  0.626994  0.531927  1
  H  H188  1  0.488758  0.603406  0.517322  1
