# generated using pymatgen
data_Al(H2O)6
_symmetry_space_group_name_H-M   'P 1'
_cell_length_a   50.00000000
_cell_length_b   50.00000000
_cell_length_c   50.00000000
_cell_angle_alpha   90.00000000
_cell_angle_beta   90.00000000
_cell_angle_gamma   90.00000000
_symmetry_Int_Tables_number   1
_chemical_formula_structural   Al(H2O)6
_chemical_formula_sum   'Al1 H12 O6'
_cell_volume   125000.00000000
_cell_formula_units_Z   1
loop_
 _symmetry_equiv_pos_site_id
 _symmetry_equiv_pos_as_xyz
  1  'x, y, z'
loop_
 _atom_site_type_symbol
 _atom_site_label
 _atom_site_symmetry_multiplicity
 _atom_site_fract_x
 _atom_site_fract_y
 _atom_site_fract_z
 _atom_site_occupancy
  Al  Al1  1  0.500000  0.500000  0.500000  1
  O  O2  1  0.477678  0.521083  0.522263  1
  O  O3  1  0.515606  0.484070  0.530750  1
  H  H4  1  0.481985  0.538330  0.529078  1
  H  H5  1  0.460373  0.515929  0.528281  1
  H  H6  1  0.529229  0.470779  0.530453  1
  H  H7  1  0.510949  0.488125  0.548755  1
  O  O8  1  0.526518  0.527166  0.500598  1
  H  H9  1  0.527424  0.541895  0.488570  1
  H  H10  1  0.540675  0.528343  0.513269  1
  O  O11  1  0.522322  0.478917  0.477737  1
  O  O12  1  0.484394  0.515930  0.469250  1
  H  H13  1  0.518015  0.461670  0.470922  1
  H  H14  1  0.539627  0.484071  0.471719  1
  H  H15  1  0.470771  0.529221  0.469547  1
  H  H16  1  0.489051  0.511875  0.451245  1
  O  O17  1  0.473482  0.472834  0.499402  1
  H  H18  1  0.472576  0.458105  0.511430  1
  H  H19  1  0.459325  0.471657  0.486731  1
