# generated using pymatgen
data_Al3H16O11
_symmetry_space_group_name_H-M   'P 1'
_cell_length_a   50.00000000
_cell_length_b   50.00000000
_cell_length_c   50.00000000
_cell_angle_alpha   90.00000000
_cell_angle_beta   90.00000000
_cell_angle_gamma   90.00000000
_symmetry_Int_Tables_number   1
_chemical_formula_structural   Al3H16O11
_chemical_formula_sum   'Al6 H32 O22'
_cell_volume   125000.00000000
_cell_formula_units_Z   2
loop_
 _symmetry_equiv_pos_site_id
 _symmetry_equiv_pos_as_xyz
  1  'x, y, z'
loop_
 _atom_site_type_symbol
 _atom_site_label
 _atom_site_symmetry_multiplicity
 _atom_site_fract_x
 _atom_site_fract_y
 _atom_site_fract_z
 _atom_site_occupancy
  Al  Al1  1  0.532456  0.453258  0.498843  1
  O  O2  1  0.540689  0.480348  0.521186  1
  Al  Al3  1  0.563495  0.502129  0.500359  1
  O  O4  1  0.539725  0.522165  0.478834  1
  O  O5  1  0.505445  0.436743  0.518009  1
  O  O6  1  0.504489  0.457330  0.476536  1
  O  O7  1  0.556440  0.533222  0.520155  1
  O  O8  1  0.592968  0.490609  0.523247  1
  O  O9  1  0.559587  0.470543  0.480471  1
  Al  Al10  1  0.528663  0.548421  0.500896  1
  O  O11  1  0.546004  0.581778  0.501916  1
  O  O12  1  0.501115  0.562972  0.481132  1
  O  O13  1  0.500251  0.542051  0.522089  1
  Al  Al14  1  0.475181  0.448185  0.498806  1
  Al  Al15  1  0.470769  0.550418  0.499575  1
  O  O16  1  0.448009  0.466292  0.480915  1
  O  O17  1  0.449769  0.429063  0.521819  1
  O  O18  1  0.471469  0.479820  0.518401  1
  O  O19  1  0.445169  0.530668  0.518416  1
  O  O20  1  0.465472  0.582614  0.521592  1
  O  O21  1  0.466032  0.519944  0.478847  1
  Al  Al22  1  0.444826  0.498080  0.500200  1
  O  O23  1  0.411426  0.507020  0.480774  1
  H  H24  1  0.538836  0.597852  0.494748  1
  H  H25  1  0.561334  0.536173  0.538158  1
  H  H26  1  0.533664  0.518273  0.461394  1
  H  H27  1  0.608151  0.501137  0.527646  1
  H  H28  1  0.565072  0.468003  0.462574  1
  H  H29  1  0.533579  0.484143  0.538252  1
  H  H30  1  0.505889  0.431903  0.536258  1
  H  H31  1  0.504271  0.464933  0.459270  1
  H  H32  1  0.434508  0.438421  0.528204  1
  H  H33  1  0.477060  0.482383  0.536202  1
  H  H34  1  0.438922  0.460272  0.465524  1
  H  H35  1  0.409691  0.504781  0.461997  1
  H  H36  1  0.438162  0.534844  0.535426  1
  H  H37  1  0.473971  0.515627  0.462319  1
  H  H38  1  0.477413  0.586405  0.535853  1
  H  H39  1  0.501298  0.568694  0.463138  1
  H  H40  1  0.499856  0.533981  0.539133  1
  H  H41  1  0.590001  0.477896  0.537038  1
  H  H42  1  0.453660  0.414553  0.533409  1
  H  H43  1  0.400972  0.522014  0.485959  1
  H  H44  1  0.448728  0.590769  0.525283  1
  H  H45  1  0.563176  0.584805  0.509472  1
  H  H46  1  0.589432  0.528706  0.464882  1
  O  O47  1  0.592780  0.515868  0.478470  1
  H  H48  1  0.608550  0.506207  0.474133  1
  H  H49  1  0.545932  0.404756  0.505582  1
  O  O50  1  0.552302  0.421331  0.498809  1
  H  H51  1  0.569939  0.419518  0.491971  1
  H  H52  1  0.482339  0.412504  0.461627  1
  O  O53  1  0.471637  0.415897  0.476906  1
  H  H54  1  0.457068  0.403771  0.477485  1
  H  H55  1  0.399904  0.480906  0.521713  1
  O  O56  1  0.418285  0.481917  0.526415  1
  H  H57  1  0.419377  0.485354  0.545066  1
  H  H58  1  0.439878  0.561334  0.459933  1
  O  O59  1  0.446230  0.569825  0.475676  1
  H  H60  1  0.446971  0.588548  0.472611  1
