# generated using pymatgen
data_Al7(H3O2)12
_symmetry_space_group_name_H-M   'P 1'
_cell_length_a   50.00000000
_cell_length_b   50.00000000
_cell_length_c   50.00000000
_cell_angle_alpha   90.00000000
_cell_angle_beta   90.00000000
_cell_angle_gamma   90.00000000
_symmetry_Int_Tables_number   1
_chemical_formula_structural   Al7(H3O2)12
_chemical_formula_sum   'Al7 H36 O24'
_cell_volume   125000.00000000
_cell_formula_units_Z   1
loop_
 _symmetry_equiv_pos_site_id
 _symmetry_equiv_pos_as_xyz
  1  'x, y, z'
loop_
 _atom_site_type_symbol
 _atom_site_label
 _atom_site_symmetry_multiplicity
 _atom_site_fract_x
 _atom_site_fract_y
 _atom_site_fract_z
 _atom_site_occupancy
  Al  Al1  1  0.500001  0.499998  0.499988  1
  Al  Al2  1  0.504901  0.439523  0.500287  1
  Al  Al3  1  0.554817  0.473936  0.499722  1
  Al  Al4  1  0.549988  0.534401  0.500224  1
  Al  Al5  1  0.495081  0.560479  0.499683  1
  Al  Al6  1  0.445174  0.526042  0.500361  1
  Al  Al7  1  0.450028  0.465594  0.499728  1
  O  O8  1  0.533155  0.502607  0.518935  1
  O  O9  1  0.466864  0.497422  0.481062  1
  O  O10  1  0.485651  0.470078  0.518982  1
  O  O11  1  0.518759  0.472617  0.481123  1
  O  O12  1  0.514361  0.529918  0.480977  1
  O  O13  1  0.481312  0.527386  0.518902  1
  O  O14  1  0.537191  0.446371  0.516468  1
  O  O15  1  0.564867  0.505299  0.483318  1
  O  O16  1  0.527868  0.558927  0.516345  1
  O  O17  1  0.462744  0.553639  0.483657  1
  O  O18  1  0.435190  0.494627  0.516697  1
  O  O19  1  0.472211  0.441174  0.483489  1
  H  H20  1  0.533373  0.502438  0.538022  1
  H  H21  1  0.466623  0.497581  0.461975  1
  H  H22  1  0.485145  0.469945  0.538066  1
  H  H23  1  0.518690  0.472351  0.462045  1
  H  H24  1  0.514973  0.530088  0.461896  1
  H  H25  1  0.481444  0.527655  0.537979  1
  H  H26  1  0.544773  0.435425  0.529969  1
  H  H27  1  0.578043  0.506310  0.469718  1
  H  H28  1  0.533695  0.571006  0.529747  1
  H  H29  1  0.455175  0.564663  0.470211  1
  H  H30  1  0.421851  0.493490  0.530126  1
  H  H31  1  0.466447  0.429051  0.470100  1
  O  O32  1  0.564981  0.559349  0.475950  1
  H  H33  1  0.569610  0.577115  0.481035  1
  H  H34  1  0.571469  0.556214  0.458326  1
  O  O35  1  0.504704  0.586490  0.473804  1
  H  H36  1  0.500031  0.586771  0.455344  1
  H  H37  1  0.514092  0.602542  0.477977  1
  O  O38  1  0.416212  0.526584  0.475975  1
  H  H39  1  0.398241  0.522727  0.481019  1
  H  H40  1  0.416320  0.532702  0.457947  1
  O  O41  1  0.422497  0.461163  0.474025  1
  H  H42  1  0.424380  0.456355  0.455692  1
  H  H43  1  0.403949  0.461320  0.478388  1
  O  O44  1  0.434943  0.440563  0.523892  1
  H  H45  1  0.430145  0.443183  0.542127  1
  H  H46  1  0.429254  0.423183  0.518548  1
  O  O47  1  0.495062  0.413585  0.526099  1
  H  H48  1  0.484968  0.397935  0.522059  1
  H  H49  1  0.500679  0.412700  0.544276  1
  O  O50  1  0.518637  0.414302  0.475659  1
  H  H51  1  0.530695  0.400359  0.480490  1
  H  H52  1  0.513437  0.411884  0.457507  1
  O  O53  1  0.572377  0.452024  0.474200  1
  H  H54  1  0.576021  0.455869  0.455902  1
  H  H55  1  0.581180  0.435773  0.478854  1
  O  O56  1  0.427577  0.547750  0.526054  1
  H  H57  1  0.418310  0.563763  0.521469  1
  H  H58  1  0.424419  0.543973  0.544458  1
  O  O59  1  0.481510  0.585829  0.524246  1
  H  H60  1  0.487255  0.588787  0.542153  1
  H  H61  1  0.468968  0.599380  0.519530  1
  O  O62  1  0.583732  0.473537  0.524174  1
  H  H63  1  0.583644  0.467470  0.542218  1
  H  H64  1  0.601681  0.477504  0.519138  1
  O  O65  1  0.577524  0.538827  0.525955  1
  H  H66  1  0.596055  0.538968  0.521522  1
  H  H67  1  0.575654  0.543329  0.544366  1
