# generated using pymatgen
data_Al6H27O19
_symmetry_space_group_name_H-M   'P 1'
_cell_length_a   50.00000000
_cell_length_b   50.00000000
_cell_length_c   50.00000000
_cell_angle_alpha   90.00000000
_cell_angle_beta   90.00000000
_cell_angle_gamma   90.00000000
_symmetry_Int_Tables_number   1
_chemical_formula_structural   Al6H27O19
_chemical_formula_sum   'Al12 H54 O38'
_cell_volume   125000.00000000
_cell_formula_units_Z   2
loop_
 _symmetry_equiv_pos_site_id
 _symmetry_equiv_pos_as_xyz
  1  'x, y, z'
loop_
 _atom_site_type_symbol
 _atom_site_label
 _atom_site_symmetry_multiplicity
 _atom_site_fract_x
 _atom_site_fract_y
 _atom_site_fract_z
 _atom_site_occupancy
  Al  Al1  1  0.552239  0.438705  0.497715  1
  Al  Al2  1  0.604110  0.469663  0.502284  1
  Al  Al3  1  0.604032  0.530586  0.501107  1
  Al  Al4  1  0.551983  0.561364  0.496791  1
  Al  Al5  1  0.499933  0.531575  0.499772  1
  Al  Al6  1  0.500078  0.468372  0.500018  1
  Al  Al7  1  0.447993  0.438668  0.502266  1
  Al  Al8  1  0.396030  0.469444  0.497828  1
  Al  Al9  1  0.395881  0.530359  0.498852  1
  Al  Al10  1  0.447752  0.561437  0.503289  1
  Al  Al11  1  0.551309  0.500017  0.500722  1
  Al  Al12  1  0.448737  0.499969  0.499217  1
  O  O13  1  0.568599  0.471754  0.481715  1
  O  O14  1  0.583697  0.500373  0.520313  1
  O  O15  1  0.568173  0.528042  0.480980  1
  O  O16  1  0.533698  0.529223  0.518605  1
  O  O17  1  0.517114  0.499790  0.482072  1
  O  O18  1  0.533756  0.470950  0.519052  1
  O  O19  1  0.482934  0.499922  0.517812  1
  O  O20  1  0.466358  0.470844  0.480982  1
  O  O21  1  0.431568  0.471673  0.518306  1
  O  O22  1  0.416290  0.500214  0.479702  1
  O  O23  1  0.431837  0.527985  0.518978  1
  O  O24  1  0.466213  0.529080  0.481126  1
  O  O25  1  0.520282  0.445000  0.480534  1
  O  O26  1  0.582950  0.443352  0.517097  1
  O  O27  1  0.617224  0.499857  0.486097  1
  O  O28  1  0.583088  0.557129  0.515609  1
  O  O29  1  0.519922  0.554838  0.479946  1
  O  O30  1  0.479904  0.445007  0.519526  1
  O  O31  1  0.417234  0.443225  0.482936  1
  O  O32  1  0.382890  0.499626  0.514014  1
  O  O33  1  0.416737  0.556995  0.484377  1
  O  O34  1  0.480078  0.554993  0.519596  1
  O  O35  1  0.538006  0.412113  0.520547  1
  O  O36  1  0.565283  0.414386  0.472270  1
  O  O37  1  0.621558  0.446448  0.478030  1
  O  O38  1  0.630779  0.466698  0.528812  1
  O  O39  1  0.631238  0.534462  0.526915  1
  O  O40  1  0.620968  0.552691  0.475510  1
  O  O41  1  0.564374  0.585669  0.471022  1
  O  O42  1  0.538027  0.587903  0.519879  1
  O  O43  1  0.462244  0.412077  0.479447  1
  O  O44  1  0.434930  0.414363  0.527722  1
  O  O45  1  0.378580  0.446146  0.521995  1
  O  O46  1  0.369338  0.466490  0.471324  1
  O  O47  1  0.368610  0.534179  0.473109  1
  O  O48  1  0.378938  0.552474  0.524465  1
  O  O49  1  0.435317  0.585562  0.529250  1
  O  O50  1  0.461154  0.588424  0.480457  1
  H  H51  1  0.569942  0.472548  0.462684  1
  H  H52  1  0.583681  0.500700  0.539405  1
  H  H53  1  0.568862  0.527156  0.461900  1
  H  H54  1  0.534471  0.530474  0.537662  1
  H  H55  1  0.517357  0.499432  0.462963  1
  H  H56  1  0.534505  0.469845  0.538133  1
  H  H57  1  0.482743  0.499832  0.536926  1
  H  H58  1  0.465645  0.469759  0.461901  1
  H  H59  1  0.430350  0.472432  0.537347  1
  H  H60  1  0.416287  0.500493  0.460610  1
  H  H61  1  0.431059  0.526988  0.538050  1
  H  H62  1  0.465317  0.530369  0.462074  1
  H  H63  1  0.514877  0.436185  0.464613  1
  H  H64  1  0.589134  0.431333  0.530427  1
  H  H65  1  0.632050  0.499727  0.474241  1
  H  H66  1  0.589460  0.569389  0.528628  1
  H  H67  1  0.514494  0.563334  0.463857  1
  H  H68  1  0.485342  0.436191  0.535434  1
  H  H69  1  0.411053  0.431181  0.469628  1
  H  H70  1  0.368262  0.499440  0.526110  1
  H  H71  1  0.410261  0.569334  0.471484  1
  H  H72  1  0.485778  0.563898  0.535363  1
  H  H73  1  0.528077  0.397232  0.513912  1
  H  H74  1  0.542127  0.408991  0.538900  1
  H  H75  1  0.562426  0.414566  0.453437  1
  H  H76  1  0.575754  0.399084  0.476738  1
  H  H77  1  0.629013  0.429715  0.483292  1
  H  H78  1  0.625199  0.449155  0.459529  1
  H  H79  1  0.628490  0.462188  0.547184  1
  H  H80  1  0.649365  0.469339  0.525463  1
  H  H81  1  0.629502  0.539975  0.545069  1
  H  H82  1  0.649705  0.531602  0.523120  1
  H  H83  1  0.624394  0.548743  0.457187  1
  H  H84  1  0.628756  0.569588  0.479687  1
  H  H85  1  0.575267  0.600772  0.475145  1
  H  H86  1  0.561116  0.585422  0.452256  1
  H  H87  1  0.542526  0.591042  0.538140  1
  H  H88  1  0.528031  0.602825  0.513441  1
  H  H89  1  0.472124  0.397166  0.486086  1
  H  H90  1  0.458160  0.408987  0.461079  1
  H  H91  1  0.424324  0.399153  0.523262  1
  H  H92  1  0.437965  0.414415  0.546527  1
  H  H93  1  0.375170  0.448639  0.540570  1
  H  H94  1  0.370926  0.429542  0.516605  1
  H  H95  1  0.371574  0.461774  0.452997  1
  H  H96  1  0.350774  0.469284  0.474666  1
  H  H97  1  0.350130  0.531473  0.476968  1
  H  H98  1  0.370340  0.539548  0.454911  1
  H  H99  1  0.375459  0.548536  0.542779  1
  H  H100  1  0.371332  0.569464  0.520324  1
  H  H101  1  0.437307  0.584613  0.548178  1
  H  H102  1  0.424912  0.600975  0.524997  1
  H  H103  1  0.471941  0.602864  0.486705  1
  H  H104  1  0.456797  0.591542  0.462162  1
