# generated using pymatgen
data_Al7(H11O8)3
_symmetry_space_group_name_H-M   'P 1'
_cell_length_a   50.00000000
_cell_length_b   50.00000000
_cell_length_c   50.00000000
_cell_angle_alpha   90.00000000
_cell_angle_beta   90.00000000
_cell_angle_gamma   90.00000000
_symmetry_Int_Tables_number   1
_chemical_formula_structural   Al7(H11O8)3
_chemical_formula_sum   'Al14 H66 O48'
_cell_volume   125000.00000000
_cell_formula_units_Z   2
loop_
 _symmetry_equiv_pos_site_id
 _symmetry_equiv_pos_as_xyz
  1  'x, y, z'
loop_
 _atom_site_type_symbol
 _atom_site_label
 _atom_site_symmetry_multiplicity
 _atom_site_fract_x
 _atom_site_fract_y
 _atom_site_fract_z
 _atom_site_occupancy
  Al  Al1  1  0.502621  0.502875  0.499715  1
  Al  Al2  1  0.502076  0.441636  0.496921  1
  Al  Al3  1  0.448463  0.412263  0.497519  1
  Al  Al4  1  0.396289  0.442255  0.500785  1
  Al  Al5  1  0.396732  0.502507  0.502398  1
  Al  Al6  1  0.449229  0.533644  0.500916  1
  Al  Al7  1  0.451802  0.591240  0.502596  1
  Al  Al8  1  0.503438  0.617264  0.496551  1
  Al  Al9  1  0.553120  0.587523  0.498178  1
  Al  Al10  1  0.554315  0.529376  0.501664  1
  Al  Al11  1  0.602910  0.497032  0.503932  1
  Al  Al12  1  0.603141  0.438642  0.502073  1
  Al  Al13  1  0.551406  0.412185  0.496905  1
  Al  Al14  1  0.449228  0.472643  0.499371  1
  O  O15  1  0.482423  0.470548  0.517481  1
  O  O16  1  0.463320  0.443623  0.478746  1
  O  O17  1  0.432239  0.443134  0.518145  1
  O  O18  1  0.414485  0.472330  0.481763  1
  O  O19  1  0.431915  0.499907  0.520005  1
  O  O20  1  0.464295  0.501999  0.480890  1
  O  O21  1  0.480270  0.525327  0.518899  1
  O  O22  1  0.460200  0.561508  0.480231  1
  O  O23  1  0.483931  0.595932  0.520220  1
  O  O24  1  0.520954  0.589860  0.478618  1
  O  O25  1  0.543375  0.559973  0.520973  1
  O  O26  1  0.521898  0.526671  0.480014  1
  O  O27  1  0.531812  0.504814  0.521393  1
  O  O28  1  0.573193  0.502803  0.482508  1
  O  O29  1  0.591299  0.466912  0.523152  1
  O  O30  1  0.574530  0.434487  0.478439  1
  O  O31  1  0.531999  0.437325  0.517577  1
  O  O32  1  0.510152  0.472785  0.479231  1
  O  O33  1  0.480686  0.415835  0.513795  1
  O  O34  1  0.414770  0.415859  0.482919  1
  O  O35  1  0.383741  0.471999  0.518518  1
  O  O36  1  0.415767  0.527875  0.484774  1
  O  O37  1  0.438690  0.561980  0.522181  1
  O  O38  1  0.469178  0.616030  0.481065  1
  O  O39  1  0.536078  0.616784  0.514264  1
  O  O40  1  0.566937  0.558191  0.480252  1
  O  O41  1  0.584925  0.522773  0.522997  1
  O  O42  1  0.618567  0.468574  0.485691  1
  O  O43  1  0.582364  0.411280  0.517315  1
  O  O44  1  0.520767  0.417920  0.475783  1
  O  O45  1  0.459487  0.387002  0.471060  1
  O  O46  1  0.437341  0.385140  0.521981  1
  O  O47  1  0.379904  0.418647  0.526019  1
  O  O48  1  0.366649  0.439681  0.476909  1
  O  O49  1  0.366371  0.506162  0.479370  1
  O  O50  1  0.381941  0.525550  0.528941  1
  O  O51  1  0.417504  0.596762  0.483857  1
  O  O52  1  0.436422  0.617661  0.528047  1
  O  O53  1  0.493331  0.651462  0.513509  1
  O  O54  1  0.516800  0.641225  0.467430  1
  O  O55  1  0.571744  0.612008  0.473005  1
  O  O56  1  0.585865  0.594014  0.519932  1
  O  O57  1  0.623141  0.523962  0.481330  1
  O  O58  1  0.635503  0.501363  0.526791  1
  O  O59  1  0.632578  0.432073  0.527814  1
  O  O60  1  0.625185  0.414338  0.479925  1
  O  O61  1  0.560717  0.380360  0.475271  1
  O  O62  1  0.533489  0.384550  0.519897  1
  H  H63  1  0.482979  0.469454  0.536465  1
  H  H64  1  0.462957  0.444162  0.459718  1
  H  H65  1  0.433300  0.442272  0.537132  1
  H  H66  1  0.413537  0.472897  0.462741  1
  H  H67  1  0.432819  0.499631  0.539028  1
  H  H68  1  0.464096  0.502355  0.461875  1
  H  H69  1  0.485713  0.533987  0.534761  1
  H  H70  1  0.461486  0.562494  0.461416  1
  H  H71  1  0.489219  0.590351  0.537407  1
  H  H72  1  0.512031  0.573543  0.475207  1
  H  H73  1  0.535589  0.560952  0.538075  1
  H  H74  1  0.522592  0.527777  0.461178  1
  H  H75  1  0.532782  0.503350  0.540186  1
  H  H76  1  0.572172  0.499786  0.463944  1
  H  H77  1  0.585190  0.467049  0.540980  1
  H  H78  1  0.570963  0.444672  0.463000  1
  H  H79  1  0.541056  0.451909  0.525481  1
  H  H80  1  0.520801  0.473349  0.463652  1
  H  H81  1  0.489569  0.402752  0.524193  1
  H  H82  1  0.407062  0.403664  0.470643  1
  H  H83  1  0.370160  0.471544  0.531708  1
  H  H84  1  0.410456  0.537899  0.469651  1
  H  H85  1  0.434743  0.562376  0.540645  1
  H  H86  1  0.465212  0.620753  0.463237  1
  H  H87  1  0.543139  0.627968  0.527700  1
  H  H88  1  0.584431  0.557150  0.473257  1
  H  H89  1  0.589321  0.531966  0.538826  1
  H  H90  1  0.626848  0.468800  0.468744  1
  H  H91  1  0.585284  0.403087  0.534045  1
  H  H92  1  0.515309  0.408798  0.460200  1
  H  H93  1  0.453547  0.385847  0.453019  1
  H  H94  1  0.470426  0.371929  0.474985  1
  H  H95  1  0.444504  0.381851  0.539294  1
  H  H96  1  0.424415  0.371785  0.517917  1
  H  H97  1  0.371692  0.402164  0.521192  1
  H  H98  1  0.378541  0.420817  0.544876  1
  H  H99  1  0.367171  0.435520  0.458354  1
  H  H100  1  0.348554  0.442574  0.482076  1
  H  H101  1  0.348427  0.503785  0.485252  1
  H  H102  1  0.366223  0.511324  0.461068  1
  H  H103  1  0.377218  0.521083  0.546818  1
  H  H104  1  0.377760  0.543855  0.525814  1
  H  H105  1  0.401135  0.588553  0.488827  1
  H  H106  1  0.413904  0.610542  0.471299  1
  H  H107  1  0.418390  0.623532  0.527880  1
  H  H108  1  0.443796  0.620692  0.545267  1
  H  H109  1  0.475212  0.657034  0.512341  1
  H  H110  1  0.500875  0.658462  0.529445  1
  H  H111  1  0.512895  0.659801  0.467295  1
  H  H112  1  0.517597  0.634909  0.449544  1
  H  H113  1  0.575093  0.606345  0.455196  1
  H  H114  1  0.565976  0.630102  0.472530  1
  H  H115  1  0.598648  0.607217  0.515238  1
  H  H116  1  0.586335  0.591235  0.538682  1
  H  H117  1  0.625048  0.522585  0.462506  1
  H  H118  1  0.638584  0.532518  0.488290  1
  H  H119  1  0.651272  0.491721  0.522429  1
  H  H120  1  0.635189  0.504242  0.545545  1
  H  H121  1  0.640696  0.415092  0.530321  1
  H  H122  1  0.633093  0.441436  0.544308  1
  H  H123  1  0.643890  0.416534  0.477492  1
  H  H124  1  0.617821  0.407396  0.463871  1
  H  H125  1  0.573949  0.368147  0.481358  1
  H  H126  1  0.561830  0.381255  0.456324  1
  H  H127  1  0.531733  0.366488  0.514287  1
  H  H128  1  0.535876  0.384775  0.538745  1
