# generated using pymatgen
data_Al5(H18O11)2
_symmetry_space_group_name_H-M   'P 1'
_cell_length_a   50.00000000
_cell_length_b   50.00000000
_cell_length_c   50.00000000
_cell_angle_alpha   90.00000000
_cell_angle_beta   90.00000000
_cell_angle_gamma   90.00000000
_symmetry_Int_Tables_number   1
_chemical_formula_structural   Al5(H18O11)2
_chemical_formula_sum   'Al5 H36 O22'
_cell_volume   125000.00000000
_cell_formula_units_Z   1
loop_
 _symmetry_equiv_pos_site_id
 _symmetry_equiv_pos_as_xyz
  1  'x, y, z'
loop_
 _atom_site_type_symbol
 _atom_site_label
 _atom_site_symmetry_multiplicity
 _atom_site_fract_x
 _atom_site_fract_y
 _atom_site_fract_z
 _atom_site_occupancy
  Al  Al1  1  0.448927  0.521398  0.498934  1
  O  O2  1  0.451348  0.490095  0.519591  1
  O  O3  1  0.470847  0.543968  0.518737  1
  H  H4  1  0.461549  0.488045  0.535320  1
  H  H5  1  0.466987  0.551227  0.535711  1
  O  O6  1  0.481090  0.520895  0.479930  1
  H  H7  1  0.483475  0.515387  0.462052  1
  Al  Al8  1  0.432207  0.465965  0.499677  1
  O  O9  1  0.430300  0.495956  0.478666  1
  H  H10  1  0.422354  0.497431  0.461604  1
  Al  Al11  1  0.502534  0.544096  0.499401  1
  Al  Al12  1  0.555169  0.519123  0.501071  1
  O  O13  1  0.522466  0.519119  0.519340  1
  O  O14  1  0.572989  0.492059  0.519688  1
  H  H15  1  0.519787  0.516450  0.537847  1
  H  H16  1  0.581643  0.493638  0.536377  1
  O  O17  1  0.534913  0.542765  0.481070  1
  H  H18  1  0.539612  0.552348  0.465518  1
  Al  Al19  1  0.564062  0.462031  0.500144  1
  O  O20  1  0.549396  0.488545  0.479947  1
  H  H21  1  0.539435  0.487510  0.463959  1
  O  O22  1  0.515392  0.575098  0.520239  1
  H  H23  1  0.534069  0.578258  0.521675  1
  H  H24  1  0.506566  0.583371  0.534854  1
  O  O25  1  0.568426  0.547197  0.526643  1
  H  H26  1  0.566292  0.545872  0.545487  1
  H  H27  1  0.584692  0.556389  0.523141  1
  O  O28  1  0.580656  0.437355  0.524414  1
  H  H29  1  0.580758  0.418526  0.521731  1
  H  H30  1  0.590437  0.441524  0.540164  1
  O  O31  1  0.397294  0.473754  0.515341  1
  H  H32  1  0.389727  0.491058  0.513194  1
  H  H33  1  0.390310  0.465765  0.531095  1
  O  O34  1  0.417110  0.530245  0.522050  1
  H  H35  1  0.417199  0.525805  0.540521  1
  H  H36  1  0.408392  0.546982  0.519880  1
  O  O37  1  0.434531  0.551476  0.478125  1
  H  H38  1  0.421482  0.550878  0.464365  1
  H  H39  1  0.445666  0.566682  0.475610  1
  O  O40  1  0.588001  0.529174  0.481634  1
  H  H41  1  0.588475  0.533809  0.463224  1
  H  H42  1  0.604902  0.521986  0.486497  1
  O  O43  1  0.596392  0.460505  0.478714  1
  H  H44  1  0.613142  0.453590  0.484410  1
  H  H45  1  0.598450  0.469431  0.462081  1
  O  O46  1  0.411759  0.442277  0.477054  1
  H  H47  1  0.392789  0.442596  0.476092  1
  H  H48  1  0.418916  0.432558  0.462391  1
  O  O49  1  0.489538  0.573888  0.474452  1
  H  H50  1  0.494422  0.591698  0.478960  1
  H  H51  1  0.490881  0.572111  0.455571  1
  O  O52  1  0.462706  0.450517  0.480975  1
  H  H53  1  0.473741  0.436930  0.488349  1
  H  H54  1  0.471787  0.458910  0.466579  1
  O  O55  1  0.435878  0.437213  0.524964  1
  H  H56  1  0.442106  0.438826  0.542848  1
  H  H57  1  0.428219  0.419981  0.522492  1
  O  O58  1  0.552774  0.431723  0.479081  1
  H  H59  1  0.562240  0.424732  0.464169  1
  H  H60  1  0.535239  0.424453  0.479696  1
  O  O61  1  0.530004  0.456513  0.518517  1
  H  H62  1  0.517776  0.471081  0.518025  1
  H  H63  1  0.528328  0.447504  0.535162  1
