# generated using pymatgen
data_Al(H2O)5
_symmetry_space_group_name_H-M   'P 1'
_cell_length_a   50.00000000
_cell_length_b   50.00000000
_cell_length_c   50.00000000
_cell_angle_alpha   90.00000000
_cell_angle_beta   90.00000000
_cell_angle_gamma   90.00000000
_symmetry_Int_Tables_number   1
_chemical_formula_structural   Al(H2O)5
_chemical_formula_sum   'Al1 H10 O5'
_cell_volume   125000.00000000
_cell_formula_units_Z   1
loop_
 _symmetry_equiv_pos_site_id
 _symmetry_equiv_pos_as_xyz
  1  'x, y, z'
loop_
 _atom_site_type_symbol
 _atom_site_label
 _atom_site_symmetry_multiplicity
 _atom_site_fract_x
 _atom_site_fract_y
 _atom_site_fract_z
 _atom_site_occupancy
  Al  Al1  1  0.500003  0.500167  0.499379  1
  O  O2  1  0.462377  0.500288  0.496720  1
  O  O3  1  0.537633  0.500336  0.496781  1
  O  O4  1  0.500045  0.467061  0.483432  1
  O  O5  1  0.499957  0.497389  0.535995  1
  O  O6  1  0.499988  0.534817  0.487133  1
  H  H7  1  0.450636  0.499376  0.511742  1
  H  H8  1  0.451921  0.501203  0.480757  1
  H  H9  1  0.549356  0.499582  0.511827  1
  H  H10  1  0.548108  0.501237  0.480830  1
  H  H11  1  0.484431  0.456727  0.479721  1
  H  H12  1  0.515689  0.456761  0.479753  1
  H  H13  1  0.499717  0.511992  0.548343  1
  H  H14  1  0.500143  0.480896  0.545693  1
  H  H15  1  0.515597  0.545476  0.484473  1
  H  H16  1  0.484369  0.545454  0.484441  1
