# generated using pymatgen
data_Al(H3O2)2
_symmetry_space_group_name_H-M   'P 1'
_cell_length_a   50.00000000
_cell_length_b   50.00000000
_cell_length_c   50.00000000
_cell_angle_alpha   90.00000000
_cell_angle_beta   90.00000000
_cell_angle_gamma   90.00000000
_symmetry_Int_Tables_number   1
_chemical_formula_structural   Al(H3O2)2
_chemical_formula_sum   'Al6 H36 O24'
_cell_volume   125000.00000000
_cell_formula_units_Z   6
loop_
 _symmetry_equiv_pos_site_id
 _symmetry_equiv_pos_as_xyz
  1  'x, y, z'
loop_
 _atom_site_type_symbol
 _atom_site_label
 _atom_site_symmetry_multiplicity
 _atom_site_fract_x
 _atom_site_fract_y
 _atom_site_fract_z
 _atom_site_occupancy
  Al  Al1  1  0.455357  0.537503  0.500732  1
  Al  Al2  1  0.510200  0.557108  0.499160  1
  Al  Al3  1  0.554949  0.519822  0.500867  1
  Al  Al4  1  0.544643  0.462496  0.499268  1
  Al  Al5  1  0.489801  0.442892  0.500839  1
  Al  Al6  1  0.445050  0.480178  0.499133  1
  O  O7  1  0.526122  0.530101  0.479466  1
  O  O8  1  0.473877  0.469898  0.520534  1
  O  O9  1  0.460338  0.507423  0.479202  1
  O  O10  1  0.486735  0.537414  0.520452  1
  O  O11  1  0.539662  0.492576  0.520799  1
  O  O12  1  0.513266  0.462586  0.479549  1
  O  O13  1  0.477409  0.560662  0.481494  1
  O  O14  1  0.541360  0.549924  0.518447  1
  O  O15  1  0.564147  0.489145  0.481622  1
  O  O16  1  0.522590  0.439340  0.518508  1
  O  O17  1  0.458639  0.450074  0.481554  1
  O  O18  1  0.435853  0.510855  0.518378  1
  H  H19  1  0.521567  0.523407  0.462479  1
  H  H20  1  0.478439  0.476600  0.537516  1
  H  H21  1  0.467995  0.506847  0.462015  1
  H  H22  1  0.490270  0.530023  0.537389  1
  H  H23  1  0.532010  0.493150  0.537988  1
  H  H24  1  0.509736  0.469968  0.462606  1
  H  H25  1  0.474914  0.567829  0.464230  1
  H  H26  1  0.546151  0.555595  0.535784  1
  H  H27  1  0.571260  0.487860  0.464200  1
  H  H28  1  0.525087  0.432161  0.535766  1
  H  H29  1  0.453861  0.444416  0.464209  1
  H  H30  1  0.428734  0.512142  0.535798  1
  O  O31  1  0.577305  0.451200  0.518564  1
  H  H32  1  0.578126  0.439432  0.533426  1
  H  H33  1  0.591779  0.463454  0.519536  1
  O  O34  1  0.471713  0.417255  0.525998  1
  H  H35  1  0.469032  0.421671  0.544255  1
  H  H36  1  0.474604  0.398553  0.524576  1
  O  O37  1  0.419518  0.457339  0.518921  1
  H  H38  1  0.408413  0.462551  0.533385  1
  H  H39  1  0.423109  0.438734  0.520147  1
  O  O40  1  0.413769  0.482648  0.474106  1
  H  H41  1  0.415976  0.487461  0.455887  1
  H  H42  1  0.399106  0.470695  0.475596  1
  O  O43  1  0.422699  0.548800  0.481433  1
  H  H44  1  0.408220  0.536554  0.480450  1
  H  H45  1  0.421867  0.560604  0.466600  1
  O  O46  1  0.442547  0.565953  0.526106  1
  H  H47  1  0.424940  0.572899  0.524739  1
  H  H48  1  0.447720  0.565921  0.544360  1
  O  O49  1  0.503290  0.590737  0.518826  1
  H  H50  1  0.513323  0.597638  0.533368  1
  H  H51  1  0.485380  0.596915  0.520083  1
  O  O52  1  0.496707  0.409265  0.481171  1
  H  H53  1  0.486646  0.402333  0.466663  1
  H  H54  1  0.514613  0.403081  0.479899  1
  O  O55  1  0.557454  0.434046  0.473896  1
  H  H56  1  0.552286  0.434076  0.455641  1
  H  H57  1  0.575059  0.427094  0.475269  1
  O  O58  1  0.580480  0.542661  0.481077  1
  H  H59  1  0.576888  0.561265  0.479845  1
  H  H60  1  0.591598  0.537446  0.466625  1
  O  O61  1  0.586232  0.517352  0.525893  1
  H  H62  1  0.600895  0.529304  0.524402  1
  H  H63  1  0.584025  0.512540  0.544112  1
  O  O64  1  0.528288  0.582746  0.474003  1
  H  H65  1  0.530966  0.578336  0.455745  1
  H  H66  1  0.525401  0.601449  0.475433  1
