# generated using pymatgen
data_Al13H51O41
_symmetry_space_group_name_H-M   'P 1'
_cell_length_a   50.00000000
_cell_length_b   50.00000000
_cell_length_c   50.00000000
_cell_angle_alpha   90.00000000
_cell_angle_beta   90.00000000
_cell_angle_gamma   90.00000000
_symmetry_Int_Tables_number   1
_chemical_formula_structural   Al13H51O41
_chemical_formula_sum   'Al13 H51 O41'
_cell_volume   125000.00000000
_cell_formula_units_Z   1
loop_
 _symmetry_equiv_pos_site_id
 _symmetry_equiv_pos_as_xyz
  1  'x, y, z'
loop_
 _atom_site_type_symbol
 _atom_site_label
 _atom_site_symmetry_multiplicity
 _atom_site_fract_x
 _atom_site_fract_y
 _atom_site_fract_z
 _atom_site_occupancy
  Al  Al1  1  0.499342  0.500275  0.501105  1
  Al  Al2  1  0.550995  0.528534  0.469064  1
  Al  Al3  1  0.496429  0.543504  0.452797  1
  Al  Al4  1  0.453147  0.504749  0.547791  1
  Al  Al5  1  0.453788  0.546105  0.505048  1
  Al  Al6  1  0.437493  0.476349  0.497412  1
  Al  Al7  1  0.507331  0.490074  0.566285  1
  Al  Al8  1  0.552711  0.514260  0.536838  1
  Al  Al9  1  0.540378  0.457623  0.529809  1
  Al  Al10  1  0.491400  0.435993  0.487416  1
  Al  Al11  1  0.536003  0.460928  0.461035  1
  Al  Al12  1  0.481014  0.473984  0.445099  1
  O  O13  1  0.514548  0.528334  0.484476  1
  O  O14  1  0.464778  0.506656  0.510330  1
  O  O15  1  0.520329  0.492283  0.528745  1
  O  O16  1  0.501716  0.473330  0.477539  1
  O  O17  1  0.550550  0.494540  0.453510  1
  O  O18  1  0.552102  0.563259  0.483372  1
  O  O19  1  0.463116  0.541790  0.469714  1
  O  O20  1  0.486287  0.558349  0.518217  1
  O  O21  1  0.531259  0.541391  0.439372  1
  O  O22  1  0.537149  0.548058  0.532133  1
  O  O23  1  0.565087  0.515397  0.501249  1
  O  O24  1  0.426768  0.483208  0.532015  1
  O  O25  1  0.439287  0.538376  0.537817  1
  O  O26  1  0.483297  0.518656  0.564417  1
  O  O27  1  0.474274  0.473859  0.556259  1
  O  O28  1  0.462655  0.450871  0.506019  1
  O  O29  1  0.448522  0.484137  0.463045  1
  O  O30  1  0.536892  0.512194  0.570904  1
  O  O31  1  0.525719  0.457725  0.564563  1
  O  O32  1  0.568755  0.480309  0.540011  1
  O  O33  1  0.552486  0.460099  0.494543  1
  O  O34  1  0.522153  0.426976  0.468095  1
  O  O35  1  0.472663  0.438344  0.455050  1
  O  O36  1  0.514070  0.464195  0.430369  1
  O  O37  1  0.586384  0.534303  0.453117  1
  O  O38  1  0.482836  0.563140  0.421800  1
  O  O39  1  0.432726  0.504472  0.581273  1
  O  O40  1  0.502440  0.485785  0.605050  1
  O  O41  1  0.585196  0.531426  0.551241  1
  O  O42  1  0.562687  0.426168  0.538394  1
  O  O43  1  0.480637  0.398939  0.493988  1
  O  O44  1  0.565928  0.445068  0.441195  1
  O  O45  1  0.460614  0.470396  0.411794  1
  O  O46  1  0.511881  0.435829  0.518958  1
  O  O47  1  0.502575  0.576022  0.471168  1
  Al  Al48  1  0.519844  0.562884  0.502187  1
  O  O49  1  0.524124  0.598539  0.517913  1
  H  H50  1  0.473057  0.579206  0.424446  1
  H  H51  1  0.475714  0.554172  0.406649  1
  H  H52  1  0.602038  0.523140  0.553994  1
  H  H53  1  0.587492  0.550261  0.550784  1
  H  H54  1  0.538362  0.554559  0.427828  1
  H  H55  1  0.512267  0.589247  0.461707  1
  H  H56  1  0.531275  0.554389  0.548970  1
  H  H57  1  0.593953  0.551417  0.449937  1
  H  H58  1  0.595519  0.521317  0.442719  1
  H  H59  1  0.439375  0.512743  0.597017  1
  H  H60  1  0.413751  0.504429  0.581965  1
  H  H61  1  0.496521  0.499976  0.616176  1
  H  H62  1  0.500943  0.469429  0.614541  1
  H  H63  1  0.555796  0.408597  0.536294  1
  H  H64  1  0.581188  0.425881  0.534132  1
  H  H65  1  0.468228  0.389362  0.483287  1
  H  H66  1  0.491325  0.386503  0.503552  1
  H  H67  1  0.430755  0.550395  0.549648  1
  H  H68  1  0.546534  0.513627  0.587074  1
  H  H69  1  0.535166  0.450104  0.579035  1
  H  H70  1  0.503553  0.428957  0.534523  1
  H  H71  1  0.533913  0.414947  0.476731  1
  H  H72  1  0.568001  0.426585  0.437463  1
  H  H73  1  0.582241  0.454129  0.437778  1
  H  H74  1  0.476947  0.424565  0.442814  1
  H  H75  1  0.459966  0.483863  0.398423  1
  H  H76  1  0.453944  0.454115  0.404657  1
  H  H77  1  0.415938  0.470959  0.541543  1
  H  H78  1  0.515974  0.452339  0.415788  1
  H  H79  1  0.517392  0.614427  0.509980  1
  H  H80  1  0.538820  0.603101  0.529046  1
  H  H81  1  0.567462  0.567680  0.493471  1
  H  H82  1  0.548421  0.497124  0.434838  1
  H  H83  1  0.583762  0.512352  0.500419  1
  H  H84  1  0.569203  0.468933  0.494613  1
  H  H85  1  0.452575  0.528553  0.461120  1
  H  H86  1  0.434840  0.481781  0.450109  1
  H  H87  1  0.465838  0.451660  0.524736  1
  H  H88  1  0.467112  0.460924  0.568101  1
  H  H89  1  0.487345  0.536844  0.567024  1
  H  H90  1  0.482884  0.571064  0.531853  1
  H  H91  1  0.577667  0.476053  0.556134  1
  O  O92  1  0.447289  0.586054  0.502766  1
  H  H93  1  0.460086  0.595811  0.492641  1
  H  H94  1  0.430384  0.594383  0.500656  1
  O  O95  1  0.416346  0.546047  0.491494  1
  H  H96  1  0.401587  0.547256  0.503376  1
  H  H97  1  0.411615  0.553950  0.474880  1
  O  O98  1  0.402782  0.493528  0.487686  1
  H  H99  1  0.396421  0.500682  0.471334  1
  H  H100  1  0.389531  0.495800  0.501081  1
  O  O101  1  0.414812  0.444788  0.490623  1
  H  H102  1  0.421294  0.427159  0.493081  1
  H  H103  1  0.397064  0.444462  0.483988  1
  O  O104  1  0.488683  0.510107  0.436201  1
  H  H105  1  0.501368  0.508785  0.422144  1
