# generated using pymatgen
data_Al13(H33O23)2
_symmetry_space_group_name_H-M   'P 1'
_cell_length_a   50.00000000
_cell_length_b   50.00000000
_cell_length_c   50.00000000
_cell_angle_alpha   90.00000000
_cell_angle_beta   90.00000000
_cell_angle_gamma   90.00000000
_symmetry_Int_Tables_number   1
_chemical_formula_structural   Al13(H33O23)2
_chemical_formula_sum   'Al26 H132 O92'
_cell_volume   125000.00000000
_cell_formula_units_Z   2
loop_
 _symmetry_equiv_pos_site_id
 _symmetry_equiv_pos_as_xyz
  1  'x, y, z'
loop_
 _atom_site_type_symbol
 _atom_site_label
 _atom_site_symmetry_multiplicity
 _atom_site_fract_x
 _atom_site_fract_y
 _atom_site_fract_z
 _atom_site_occupancy
  Al  Al1  1  0.586520  0.448898  0.507757  1
  O  O2  1  0.563258  0.438741  0.534151  1
  O  O3  1  0.618521  0.436276  0.523471  1
  O  O4  1  0.614960  0.466697  0.485439  1
  O  O5  1  0.559906  0.469999  0.491144  1
  O  O6  1  0.591406  0.484650  0.525814  1
  O  O7  1  0.586154  0.419328  0.484978  1
  Al  Al8  1  0.617929  0.499970  0.503439  1
  O  O9  1  0.648126  0.483190  0.519375  1
  O  O10  1  0.587868  0.516508  0.487590  1
  Al  Al11  1  0.556946  0.501806  0.511167  1
  O  O12  1  0.644876  0.514859  0.481135  1
  O  O13  1  0.621172  0.533318  0.521149  1
  Al  Al14  1  0.646785  0.446701  0.501224  1
  O  O15  1  0.640554  0.418319  0.478134  1
  O  O16  1  0.670007  0.466023  0.479343  1
  O  O17  1  0.674518  0.434683  0.522675  1
  Al  Al18  1  0.678286  0.498132  0.496486  1
  O  O19  1  0.699528  0.514094  0.470249  1
  O  O20  1  0.704168  0.480629  0.517000  1
  O  O21  1  0.676455  0.530881  0.514827  1
  Al  Al22  1  0.649636  0.551431  0.498296  1
  O  O23  1  0.617923  0.562343  0.482500  1
  O  O24  1  0.672853  0.561940  0.471307  1
  O  O25  1  0.649893  0.580308  0.521630  1
  Al  Al26  1  0.589392  0.552717  0.504595  1
  O  O27  1  0.561300  0.563148  0.483147  1
  O  O28  1  0.567020  0.533765  0.528504  1
  O  O29  1  0.594865  0.583251  0.525453  1
  O  O30  1  0.535826  0.484930  0.536572  1
  O  O31  1  0.530945  0.520931  0.493215  1
  Al  Al32  1  0.624124  0.605460  0.531245  1
  O  O33  1  0.621736  0.622190  0.496592  1
  O  O34  1  0.600298  0.633989  0.543436  1
  O  O35  1  0.653106  0.630418  0.538968  1
  O  O36  1  0.625483  0.596283  0.568932  1
  Al  Al37  1  0.705896  0.549271  0.459626  1
  O  O38  1  0.693689  0.542251  0.423522  1
  O  O39  1  0.724736  0.558501  0.491968  1
  O  O40  1  0.714571  0.584973  0.446514  1
  O  O41  1  0.740971  0.539274  0.445888  1
  Al  Al42  1  0.709887  0.445311  0.527459  1
  O  O43  1  0.722156  0.433624  0.492903  1
  O  O44  1  0.747517  0.453137  0.534439  1
  O  O45  1  0.718269  0.409133  0.539555  1
  O  O46  1  0.704998  0.453852  0.564910  1
  Al  Al47  1  0.611863  0.395130  0.473100  1
  O  O48  1  0.615359  0.377955  0.507524  1
  O  O49  1  0.606072  0.405122  0.436125  1
  O  O50  1  0.583890  0.368732  0.466783  1
  O  O51  1  0.636762  0.368437  0.459231  1
  Al  Al52  1  0.527352  0.448069  0.542402  1
  O  O53  1  0.513059  0.441783  0.509028  1
  O  O54  1  0.489712  0.449952  0.548180  1
  O  O55  1  0.526209  0.408745  0.552156  1
  O  O56  1  0.535157  0.453362  0.580148  1
  Al  Al57  1  0.524037  0.557759  0.486395  1
  O  O58  1  0.510041  0.550233  0.452040  1
  O  O59  1  0.525721  0.569825  0.524305  1
  O  O60  1  0.486866  0.557910  0.491176  1
  O  O61  1  0.523230  0.596557  0.477765  1
  Al  Al62  1  0.350386  0.448556  0.501812  1
  O  O63  1  0.327262  0.438055  0.528846  1
  O  O64  1  0.382161  0.437656  0.517553  1
  O  O65  1  0.378956  0.466539  0.478731  1
  O  O66  1  0.323585  0.469037  0.485206  1
  O  O67  1  0.355306  0.485086  0.518706  1
  O  O68  1  0.350052  0.419632  0.478551  1
  Al  Al69  1  0.382073  0.500020  0.496308  1
  O  O70  1  0.412239  0.483507  0.512143  1
  O  O71  1  0.351881  0.516697  0.480358  1
  Al  Al72  1  0.321756  0.501870  0.503390  1
  O  O73  1  0.408700  0.515053  0.473841  1
  O  O74  1  0.385143  0.533382  0.514130  1
  Al  Al75  1  0.410546  0.447216  0.495302  1
  O  O76  1  0.405052  0.416568  0.474622  1
  O  O77  1  0.433268  0.465833  0.471265  1
  O  O78  1  0.438732  0.436913  0.516937  1
  Al  Al79  1  0.443037  0.498114  0.488719  1
  O  O80  1  0.464402  0.514710  0.463351  1
  O  O81  1  0.468975  0.479162  0.506919  1
  O  O82  1  0.440053  0.530209  0.508381  1
  Al  Al83  1  0.413475  0.551171  0.491864  1
  O  O84  1  0.381525  0.563483  0.475946  1
  O  O85  1  0.436956  0.561293  0.465273  1
  O  O86  1  0.413898  0.580798  0.514480  1
  Al  Al87  1  0.353223  0.553357  0.498375  1
  O  O88  1  0.325386  0.565434  0.477086  1
  O  O89  1  0.330511  0.533840  0.520242  1
  O  O90  1  0.359552  0.581916  0.521226  1
  O  O91  1  0.300728  0.485948  0.529826  1
  O  O92  1  0.295756  0.519213  0.482873  1
  Al  Al93  1  0.388259  0.605076  0.526299  1
  O  O94  1  0.385181  0.622163  0.491824  1
  O  O95  1  0.363403  0.631869  0.539925  1
  O  O96  1  0.416343  0.631335  0.532761  1
  O  O97  1  0.393877  0.595080  0.563291  1
  Al  Al98  1  0.472859  0.551530  0.457864  1
  O  O99  1  0.475791  0.592880  0.448558  1
  O  O100  1  0.465010  0.547125  0.419984  1
  Al  Al101  1  0.476106  0.442411  0.514125  1
  O  O102  1  0.473825  0.430096  0.476701  1
  O  O103  1  0.477987  0.401989  0.522325  1
  Al  Al104  1  0.375699  0.394384  0.468933  1
  O  O105  1  0.378094  0.377738  0.503620  1
  O  O106  1  0.374303  0.403520  0.431238  1
  O  O107  1  0.346681  0.369478  0.461291  1
  O  O108  1  0.399491  0.365829  0.456773  1
  Al  Al109  1  0.294300  0.450833  0.540592  1
  O  O110  1  0.275302  0.441501  0.508365  1
  O  O111  1  0.259307  0.460997  0.554403  1
  O  O112  1  0.285568  0.415219  0.553898  1
  O  O113  1  0.306662  0.457969  0.576641  1
  Al  Al114  1  0.289960  0.554700  0.473011  1
  O  O115  1  0.252151  0.547066  0.466582  1
  O  O116  1  0.294067  0.546399  0.435362  1
  O  O117  1  0.279030  0.565809  0.508261  1
  O  O118  1  0.281319  0.590939  0.461138  1
  H  H119  1  0.567349  0.422327  0.542694  1
  H  H120  1  0.557454  0.469605  0.472357  1
  H  H121  1  0.593045  0.483717  0.544722  1
  H  H122  1  0.568683  0.412639  0.481757  1
  H  H123  1  0.584923  0.517043  0.468823  1
  H  H124  1  0.623567  0.534164  0.539978  1
  H  H125  1  0.654369  0.416241  0.465313  1
  H  H126  1  0.668609  0.422132  0.535596  1
  H  H127  1  0.613114  0.465900  0.466547  1
  H  H128  1  0.620097  0.434683  0.542286  1
  H  H129  1  0.711618  0.502178  0.461749  1
  H  H130  1  0.719177  0.491447  0.521285  1
  H  H131  1  0.670939  0.464127  0.460526  1
  H  H132  1  0.650457  0.483276  0.538233  1
  H  H133  1  0.615966  0.567323  0.464367  1
  H  H134  1  0.665427  0.575315  0.460093  1
  H  H135  1  0.665202  0.580641  0.532818  1
  H  H136  1  0.680728  0.532177  0.533250  1
  H  H137  1  0.642792  0.514791  0.462261  1
  H  H138  1  0.565020  0.577223  0.471009  1
  H  H139  1  0.570596  0.534308  0.547100  1
  H  H140  1  0.578684  0.590863  0.531853  1
  H  H141  1  0.528187  0.496458  0.549558  1
  H  H142  1  0.519286  0.510576  0.482455  1
  H  H143  1  0.634699  0.634280  0.489748  1
  H  H144  1  0.607043  0.621375  0.484594  1
  H  H145  1  0.595002  0.636603  0.561498  1
  H  H146  1  0.593548  0.648116  0.532668  1
  H  H147  1  0.650158  0.647591  0.546600  1
  H  H148  1  0.670929  0.629618  0.532403  1
  H  H149  1  0.638825  0.602081  0.581162  1
  H  H150  1  0.614488  0.583219  0.577266  1
  H  H151  1  0.691438  0.555756  0.410331  1
  H  H152  1  0.684663  0.526499  0.417925  1
  H  H153  1  0.733442  0.575233  0.494387  1
  H  H154  1  0.719249  0.551952  0.508915  1
  H  H155  1  0.706834  0.601333  0.452325  1
  H  H156  1  0.730423  0.588824  0.436729  1
  H  H157  1  0.756737  0.537929  0.456421  1
  H  H158  1  0.744576  0.533536  0.428131  1
  H  H159  1  0.726969  0.415605  0.489246  1
  H  H160  1  0.720276  0.442967  0.476514  1
  H  H161  1  0.761397  0.450862  0.521654  1
  H  H162  1  0.754882  0.458679  0.551063  1
  H  H163  1  0.708446  0.393217  0.536182  1
  H  H164  1  0.735056  0.404425  0.547167  1
  H  H165  1  0.701287  0.471111  0.571947  1
  H  H166  1  0.703814  0.440927  0.578797  1
  H  H167  1  0.615709  0.388091  0.523571  1
  H  H168  1  0.625644  0.362159  0.510037  1
  H  H169  1  0.593993  0.418694  0.430557  1
  H  H170  1  0.617513  0.400501  0.421658  1
  H  H171  1  0.575581  0.365270  0.450047  1
  H  H172  1  0.577916  0.356134  0.479700  1
  H  H173  1  0.655374  0.367369  0.462961  1
  H  H174  1  0.631375  0.352364  0.450595  1
  H  H175  1  0.521994  0.448147  0.493687  1
  H  H176  1  0.479972  0.452254  0.564199  1
  H  H177  1  0.521511  0.402028  0.569272  1
  H  H178  1  0.520269  0.396530  0.538889  1
  H  H179  1  0.551903  0.459821  0.586374  1
  H  H180  1  0.523238  0.451777  0.594832  1
  H  H181  1  0.519847  0.548479  0.435993  1
  H  H182  1  0.511872  0.580655  0.531492  1
  H  H183  1  0.532553  0.558683  0.538040  1
  H  H184  1  0.478032  0.552342  0.506856  1
  H  H185  1  0.508685  0.603057  0.467383  1
  H  H186  1  0.529406  0.610189  0.489418  1
  H  H187  1  0.334609  0.424547  0.539950  1
  H  H188  1  0.319210  0.467603  0.466818  1
  H  H189  1  0.357366  0.485413  0.537581  1
  H  H190  1  0.334715  0.419325  0.467399  1
  H  H191  1  0.349451  0.516464  0.461514  1
  H  H192  1  0.386615  0.534186  0.533061  1
  H  H193  1  0.421092  0.408774  0.468092  1
  H  H194  1  0.434062  0.423573  0.529534  1
  H  H195  1  0.376386  0.465585  0.459929  1
  H  H196  1  0.384005  0.432877  0.535756  1
  H  H197  1  0.472886  0.502961  0.451110  1
  H  H198  1  0.480591  0.489641  0.517618  1
  H  H199  1  0.429243  0.465781  0.452732  1
  H  H200  1  0.415210  0.483001  0.530911  1
  H  H201  1  0.379507  0.565082  0.457180  1
  H  H202  1  0.429708  0.573164  0.452406  1
  H  H203  1  0.431339  0.587642  0.517538  1
  H  H204  1  0.442516  0.530806  0.527166  1
  H  H205  1  0.407027  0.515745  0.454929  1
  H  H206  1  0.331157  0.577907  0.464025  1
  H  H207  1  0.326307  0.537768  0.538258  1
  H  H208  1  0.345785  0.584106  0.534079  1
  H  H209  1  0.288939  0.497898  0.538687  1
  H  H210  1  0.280843  0.508342  0.478410  1
  H  H211  1  0.374635  0.637734  0.489010  1
  H  H212  1  0.385817  0.612161  0.475702  1
  H  H213  1  0.368820  0.647911  0.548602  1
  H  H214  1  0.344810  0.633027  0.536116  1
  H  H215  1  0.422211  0.644089  0.519949  1
  H  H216  1  0.424595  0.634755  0.549535  1
  H  H217  1  0.382492  0.599860  0.577750  1
  H  H218  1  0.405884  0.581466  0.568912  1
  H  H219  1  0.478238  0.598651  0.430599  1
  H  H220  1  0.463540  0.604914  0.456720  1
  H  H221  1  0.477147  0.548992  0.405504  1
  H  H222  1  0.449125  0.538864  0.413613  1
  H  H223  1  0.488593  0.422351  0.467616  1
  H  H224  1  0.464101  0.441156  0.464693  1
  H  H225  1  0.472149  0.389870  0.508892  1
  H  H226  1  0.472931  0.394699  0.539127  1
  H  H227  1  0.365138  0.365631  0.510451  1
  H  H228  1  0.392690  0.378707  0.515726  1
  H  H229  1  0.360961  0.397678  0.419028  1
  H  H230  1  0.385377  0.416457  0.422812  1
  H  H231  1  0.349588  0.352283  0.453690  1
  H  H232  1  0.328859  0.370329  0.467854  1
  H  H233  1  0.406270  0.351748  0.467585  1
  H  H234  1  0.404729  0.363132  0.438704  1
  H  H235  1  0.266574  0.424762  0.506074  1
  H  H236  1  0.280642  0.447979  0.491344  1
  H  H237  1  0.255729  0.466763  0.572157  1
  H  H238  1  0.243517  0.462289  0.543900  1
  H  H239  1  0.269849  0.411522  0.563954  1
  H  H240  1  0.293155  0.398775  0.548125  1
  H  H241  1  0.309024  0.444469  0.589817  1
  H  H242  1  0.315793  0.473696  0.582142  1
  H  H243  1  0.244934  0.540959  0.450087  1
  H  H244  1  0.238110  0.549664  0.479125  1
  H  H245  1  0.294520  0.559465  0.421563  1
  H  H246  1  0.298498  0.529384  0.428154  1
  H  H247  1  0.277532  0.584032  0.513446  1
  H  H248  1  0.272185  0.554861  0.522177  1
  H  H249  1  0.263793  0.595668  0.455456  1
  H  H250  1  0.291276  0.606888  0.463930  1
