# generated using pymatgen
data_C3N
_symmetry_space_group_name_H-M   'P 1'
_cell_length_a   5.90057684
_cell_length_b   5.90057684
_cell_length_c   5.90057684
_cell_angle_alpha   90.00000000
_cell_angle_beta   90.00000000
_cell_angle_gamma   90.00000000
_symmetry_Int_Tables_number   1
_chemical_formula_structural   C3N
_chemical_formula_sum   'C12 N4'
_cell_volume   205.439245291
_cell_formula_units_Z   4
loop_
 _symmetry_equiv_pos_site_id
 _symmetry_equiv_pos_as_xyz
  1  'x, y, z'
loop_
 _atom_site_type_symbol
 _atom_site_label
 _atom_site_symmetry_multiplicity
 _atom_site_fract_x
 _atom_site_fract_y
 _atom_site_fract_z
 _atom_site_occupancy
  C  C1  1  0.400101  0.294667  0.833095  1
  C  C2  1  0.166905  0.900101  0.205333  1
  C  C3  1  0.794667  0.666905  0.599899  1
  C  C4  1  0.900101  0.205333  0.166905  1
  C  C5  1  0.666905  0.599899  0.794667  1
  C  C6  1  0.294667  0.833095  0.400101  1
  C  C7  1  0.599899  0.794667  0.666905  1
  C  C8  1  0.833095  0.400101  0.294667  1
  C  C9  1  0.205333  0.166905  0.900101  1
  C  C10  1  0.099899  0.705333  0.333095  1
  C  C11  1  0.333095  0.099899  0.705333  1
  C  C12  1  0.705333  0.333095  0.099899  1
  N  N13  1  0.412274  0.912274  0.587726  1
  N  N14  1  0.912274  0.587726  0.412274  1
  N  N15  1  0.587726  0.412274  0.912274  1
  N  N16  1  0.087726  0.087726  0.087726  1
