# generated using pymatgen
data_NiAs
_symmetry_space_group_name_H-M   'P 1'
_cell_length_a   6.30441664
_cell_length_b   6.30441664
_cell_length_c   5.03474754
_cell_angle_alpha   90.00000000
_cell_angle_beta   90.00000000
_cell_angle_gamma   120.03865060
_symmetry_Int_Tables_number   1
_chemical_formula_structural   NiAs
_chemical_formula_sum   'Ni6 As6'
_cell_volume   173.23229849
_cell_formula_units_Z   6
loop_
 _symmetry_equiv_pos_site_id
 _symmetry_equiv_pos_as_xyz
  1  'x, y, z'
loop_
 _atom_site_type_symbol
 _atom_site_label
 _atom_site_symmetry_multiplicity
 _atom_site_fract_x
 _atom_site_fract_y
 _atom_site_fract_z
 _atom_site_occupancy
  Ni  Ni1  1  0.662486  0.329487  0.000016  1
  Ni  Ni2  1  0.337514  0.670513  0.500016  1
  Ni  Ni3  1  0.670513  0.337514  0.500016  1
  Ni  Ni4  1  0.329487  0.662486  0.000016  1
  Ni  Ni5  1  0.991721  0.991721  0.500036  1
  Ni  Ni6  1  0.008279  0.008279  0.000036  1
  As  As7  1  0.000054  0.666743  0.244894  1
  As  As8  1  0.999946  0.333257  0.744894  1
  As  As9  1  0.333257  0.999946  0.744894  1
  As  As10  1  0.666743  0.000054  0.244894  1
  As  As11  1  0.666839  0.666839  0.759945  1
  As  As12  1  0.333161  0.333161  0.259945  1
