# generated using pymatgen
data_SiO2
_symmetry_space_group_name_H-M   'P 1'
_cell_length_a   5.09049107
_cell_length_b   5.09049190
_cell_length_c   8.53296783
_cell_angle_alpha   90.79511951
_cell_angle_beta   90.79511961
_cell_angle_gamma   119.56369172
_symmetry_Int_Tables_number   1
_chemical_formula_structural   SiO2
_chemical_formula_sum   'Si4 O8'
_cell_volume   192.255013577
_cell_formula_units_Z   4
loop_
 _symmetry_equiv_pos_site_id
 _symmetry_equiv_pos_as_xyz
  1  'x, y, z'
loop_
 _atom_site_type_symbol
 _atom_site_label
 _atom_site_symmetry_multiplicity
 _atom_site_fract_x
 _atom_site_fract_y
 _atom_site_fract_z
 _atom_site_occupancy
  Si  Si1  1  0.230993  0.617430  0.288052  1
  Si  Si2  1  0.564385  0.282663  0.162468  1
  Si  Si3  1  0.617430  0.230993  0.788052  1
  Si  Si4  1  0.282663  0.564385  0.662468  1
  O  O5  1  0.578463  0.242529  0.975193  1
  O  O6  1  0.389680  0.317302  0.695882  1
  O  O7  1  0.537564  0.891618  0.733736  1
  O  O8  1  0.242529  0.578463  0.475193  1
  O  O9  1  0.891618  0.537564  0.233736  1
  O  O10  1  0.467959  0.965014  0.246970  1
  O  O11  1  0.317302  0.389680  0.195882  1
  O  O12  1  0.965014  0.467959  0.746970  1

