# generated using pymatgen
data_SiO2
_symmetry_space_group_name_H-M   'P 1'
_cell_length_a   13.13074092
_cell_length_b   13.13074092
_cell_length_c   5.29247136
_cell_angle_alpha   90.00000000
_cell_angle_beta   90.00000000
_cell_angle_gamma   90.00000000
_symmetry_Int_Tables_number   1
_chemical_formula_structural   SiO2
_chemical_formula_sum   'Si16 O32'
_cell_volume   912.50863199
_cell_formula_units_Z   16
loop_
 _symmetry_equiv_pos_site_id
 _symmetry_equiv_pos_as_xyz
  1  'x, y, z'
loop_
 _atom_site_type_symbol
 _atom_site_label
 _atom_site_symmetry_multiplicity
 _atom_site_fract_x
 _atom_site_fract_y
 _atom_site_fract_z
 _atom_site_occupancy
  Si  Si1  1  0.380975  0.209910  0.000000  1
  Si  Si2  1  0.790090  0.380975  0.000000  1
  Si  Si3  1  0.209910  0.619025  0.000000  1
  Si  Si4  1  0.380975  0.790090  0.000000  1
  Si  Si5  1  0.619025  0.209910  0.000000  1
  Si  Si6  1  0.619025  0.790090  0.000000  1
  Si  Si7  1  0.209910  0.380975  0.000000  1
  Si  Si8  1  0.790090  0.619025  0.000000  1
  Si  Si9  1  0.880975  0.709910  0.500000  1
  Si  Si10  1  0.290090  0.880975  0.500000  1
  Si  Si11  1  0.709910  0.119025  0.500000  1
  Si  Si12  1  0.880975  0.290090  0.500000  1
  Si  Si13  1  0.119025  0.709910  0.500000  1
  Si  Si14  1  0.119025  0.290090  0.500000  1
  Si  Si15  1  0.709910  0.880975  0.500000  1
  Si  Si16  1  0.290090  0.119025  0.500000  1
  O  O17  1  0.357300  0.142700  0.750000  1
  O  O18  1  0.857300  0.357300  0.750000  1
  O  O19  1  0.142700  0.642700  0.750000  1
  O  O20  1  0.357300  0.857300  0.250000  1
  O  O21  1  0.642700  0.142700  0.250000  1
  O  O22  1  0.642700  0.857300  0.750000  1
  O  O23  1  0.142700  0.357300  0.250000  1
  O  O24  1  0.857300  0.642700  0.250000  1
  O  O25  1  0.642700  0.857300  0.250000  1
  O  O26  1  0.142700  0.642700  0.250000  1
  O  O27  1  0.857300  0.357300  0.250000  1
  O  O28  1  0.642700  0.142700  0.750000  1
  O  O29  1  0.357300  0.857300  0.750000  1
  O  O30  1  0.357300  0.142700  0.250000  1
  O  O31  1  0.857300  0.642700  0.750000  1
  O  O32  1  0.142700  0.357300  0.750000  1
  O  O33  1  0.500000  0.242715  0.000000  1
  O  O34  1  0.757285  0.500000  0.000000  1
  O  O35  1  0.242715  0.500000  0.000000  1
  O  O36  1  0.500000  0.757285  0.000000  1
  O  O37  1  0.000000  0.742715  0.500000  1
  O  O38  1  0.257285  0.000000  0.500000  1
  O  O39  1  0.742715  0.000000  0.500000  1
  O  O40  1  0.000000  0.257285  0.500000  1
  O  O41  1  0.313122  0.313122  0.000000  1
  O  O42  1  0.686878  0.313122  0.000000  1
  O  O43  1  0.313122  0.686878  0.000000  1
  O  O44  1  0.686878  0.686878  0.000000  1
  O  O45  1  0.813122  0.813122  0.500000  1
  O  O46  1  0.186878  0.813122  0.500000  1
  O  O47  1  0.813122  0.186878  0.500000  1
  O  O48  1  0.186878  0.186878  0.500000  1
